 
    CNRS - NERC - Met OFFICE - MERCATOR-ocean - CMCC
                        NEMO team
             Ocean General Circulation Model
                 NEMO version 4.0  (2019) 
 
            ._      ._      ._      ._      ._    
        _.-._)`\_.-._)`\_.-._)`\_.-._)`\_.-._)`\_ 
 
            o         _,           _,             
             o      .' (        .-' /             
            o     _/..._'.    .'   /              
       (    o .-'`      ` '-./  _.'               
        )    ( o)           ;= <_         (       
       (      '-.,\\__ __.-;`\   '.        )      
        )  )       \) |`\ \)  '.   \      (   (   
       (  (           \_/       '-._\      )   )  
        )  ) jgs                     `    (   (   
      ^^^^^^^^^^^^^^^^^^^^^^^^^^^^^^^^^^^^^^^^^^^ 
 

AAAAAAAA

    
 usr_def_nam  : read the user defined namelist (namusr_def) in namelist_cfg
 ~~~~~~~~~~~ 
    Namelist namusr_def : GYRE case
       GYRE used as Benchmark (=T)                      ln_bench  =  T
       inverse resolution & implied domain size         nn_GYRE   =  150
          jpiglo = 30*nn_GYRE+2                            jpiglo =  4502
          jpjglo = 20*nn_GYRE+2                            jpjglo =  3002
       number of model levels                              jpkglo =  31
    
    Lateral b.c. of the global domain set to closed        jperio =  0
    Namelist nammpp
       jpni and jpnj will be calculated automatically
       avoid use of mpi_allgather at the north fold  ln_nnogather =  T
 mpp_init:
 ~~~~~~~~ 
 
    ==> you use the best mpi decomposition
 
   Number of mpi processes:   768
   Number of ocean subdomains =   768
   Number of suppressed land subdomains =     0
 
 
 MPI Message Passing MPI - domain lay out over processors
 
    defines mpp subdomains
       jpni =  32
       jpnj =  24
 
       sum ilci(i,1) =  4564  jpiglo =  4502
       sum ilcj(1,j) =  3048  jpjglo =  3002
 
           ****************************************************************
           *              *               *               *               *   
        24 *  143  x127   *   143  x127   *   143  x127   *   143  x127   *   
           *        736   *         737   *         738   *         739   *        
           *              *               *               *               *   
           ****************************************************************
           *              *               *               *               *   
        23 *  143  x127   *   143  x127   *   143  x127   *   143  x127   *   
           *        704   *         705   *         706   *         707   *        
           *              *               *               *               *   
           ****************************************************************
           *              *               *               *               *   
        22 *  143  x127   *   143  x127   *   143  x127   *   143  x127   *   
           *        672   *         673   *         674   *         675   *        
           *              *               *               *               *   
           ****************************************************************
           *              *               *               *               *   
        21 *  143  x127   *   143  x127   *   143  x127   *   143  x127   *   
           *        640   *         641   *         642   *         643   *        
           *              *               *               *               *   
           ****************************************************************
           *              *               *               *               *   
        20 *  143  x127   *   143  x127   *   143  x127   *   143  x127   *   
           *        608   *         609   *         610   *         611   *        
           *              *               *               *               *   
           ****************************************************************
           *              *               *               *               *   
        19 *  143  x127   *   143  x127   *   143  x127   *   143  x127   *   
           *        576   *         577   *         578   *         579   *        
           *              *               *               *               *   
           ****************************************************************
           *              *               *               *               *   
        18 *  143  x127   *   143  x127   *   143  x127   *   143  x127   *   
           *        544   *         545   *         546   *         547   *        
           *              *               *               *               *   
           ****************************************************************
           *              *               *               *               *   
        17 *  143  x127   *   143  x127   *   143  x127   *   143  x127   *   
           *        512   *         513   *         514   *         515   *        
           *              *               *               *               *   
           ****************************************************************
           *              *               *               *               *   
        16 *  143  x127   *   143  x127   *   143  x127   *   143  x127   *   
           *        480   *         481   *         482   *         483   *        
           *              *               *               *               *   
           ****************************************************************
           *              *               *               *               *   
        15 *  143  x127   *   143  x127   *   143  x127   *   143  x127   *   
           *        448   *         449   *         450   *         451   *        
           *              *               *               *               *   
           ****************************************************************
           *              *               *               *               *   
        14 *  143  x127   *   143  x127   *   143  x127   *   143  x127   *   
           *        416   *         417   *         418   *         419   *        
           *              *               *               *               *   
           ****************************************************************
           *              *               *               *               *   
        13 *  143  x127   *   143  x127   *   143  x127   *   143  x127   *   
           *        384   *         385   *         386   *         387   *        
           *              *               *               *               *   
           ****************************************************************
           *              *               *               *               *   
        12 *  143  x127   *   143  x127   *   143  x127   *   143  x127   *   
           *        352   *         353   *         354   *         355   *        
           *              *               *               *               *   
           ****************************************************************
           *              *               *               *               *   
        11 *  143  x127   *   143  x127   *   143  x127   *   143  x127   *   
           *        320   *         321   *         322   *         323   *        
           *              *               *               *               *   
           ****************************************************************
           *              *               *               *               *   
        10 *  143  x127   *   143  x127   *   143  x127   *   143  x127   *   
           *        288   *         289   *         290   *         291   *        
           *              *               *               *               *   
           ****************************************************************
           *              *               *               *               *   
         9 *  143  x127   *   143  x127   *   143  x127   *   143  x127   *   
           *        256   *         257   *         258   *         259   *        
           *              *               *               *               *   
           ****************************************************************
           *              *               *               *               *   
         8 *  143  x127   *   143  x127   *   143  x127   *   143  x127   *   
           *        224   *         225   *         226   *         227   *        
           *              *               *               *               *   
           ****************************************************************
           *              *               *               *               *   
         7 *  143  x127   *   143  x127   *   143  x127   *   143  x127   *   
           *        192   *         193   *         194   *         195   *        
           *              *               *               *               *   
           ****************************************************************
           *              *               *               *               *   
         6 *  143  x127   *   143  x127   *   143  x127   *   143  x127   *   
           *        160   *         161   *         162   *         163   *        
           *              *               *               *               *   
           ****************************************************************
           *              *               *               *               *   
         5 *  143  x127   *   143  x127   *   143  x127   *   143  x127   *   
           *        128   *         129   *         130   *         131   *        
           *              *               *               *               *   
           ****************************************************************
           *              *               *               *               *   
         4 *  143  x127   *   143  x127   *   143  x127   *   143  x127   *   
           *         96   *          97   *          98   *          99   *        
           *              *               *               *               *   
           ****************************************************************
           *              *               *               *               *   
         3 *  143  x127   *   143  x127   *   143  x127   *   143  x127   *   
           *         64   *          65   *          66   *          67   *        
           *              *               *               *               *   
           ****************************************************************
           *              *               *               *               *   
         2 *  143  x127   *   143  x127   *   143  x127   *   143  x127   *   
           *         32   *          33   *          34   *          35   *        
           *              *               *               *               *   
           ****************************************************************
           *              *               *               *               *   
         1 *  143  x127   *   143  x127   *   143  x127   *   143  x127   *   
           *          0   *           1   *           2   *           3   *        
           *              *               *               *               *   
           ****************************************************************
                   1               2               3               4             
 
           ****************************************************************
           *              *               *               *               *   
        24 *  143  x127   *   143  x127   *   143  x127   *   143  x127   *   
           *        740   *         741   *         742   *         743   *        
           *              *               *               *               *   
           ****************************************************************
           *              *               *               *               *   
        23 *  143  x127   *   143  x127   *   143  x127   *   143  x127   *   
           *        708   *         709   *         710   *         711   *        
           *              *               *               *               *   
           ****************************************************************
           *              *               *               *               *   
        22 *  143  x127   *   143  x127   *   143  x127   *   143  x127   *   
           *        676   *         677   *         678   *         679   *        
           *              *               *               *               *   
           ****************************************************************
           *              *               *               *               *   
        21 *  143  x127   *   143  x127   *   143  x127   *   143  x127   *   
           *        644   *         645   *         646   *         647   *        
           *              *               *               *               *   
           ****************************************************************
           *              *               *               *               *   
        20 *  143  x127   *   143  x127   *   143  x127   *   143  x127   *   
           *        612   *         613   *         614   *         615   *        
           *              *               *               *               *   
           ****************************************************************
           *              *               *               *               *   
        19 *  143  x127   *   143  x127   *   143  x127   *   143  x127   *   
           *        580   *         581   *         582   *         583   *        
           *              *               *               *               *   
           ****************************************************************
           *              *               *               *               *   
        18 *  143  x127   *   143  x127   *   143  x127   *   143  x127   *   
           *        548   *         549   *         550   *         551   *        
           *              *               *               *               *   
           ****************************************************************
           *              *               *               *               *   
        17 *  143  x127   *   143  x127   *   143  x127   *   143  x127   *   
           *        516   *         517   *         518   *         519   *        
           *              *               *               *               *   
           ****************************************************************
           *              *               *               *               *   
        16 *  143  x127   *   143  x127   *   143  x127   *   143  x127   *   
           *        484   *         485   *         486   *         487   *        
           *              *               *               *               *   
           ****************************************************************
           *              *               *               *               *   
        15 *  143  x127   *   143  x127   *   143  x127   *   143  x127   *   
           *        452   *         453   *         454   *         455   *        
           *              *               *               *               *   
           ****************************************************************
           *              *               *               *               *   
        14 *  143  x127   *   143  x127   *   143  x127   *   143  x127   *   
           *        420   *         421   *         422   *         423   *        
           *              *               *               *               *   
           ****************************************************************
           *              *               *               *               *   
        13 *  143  x127   *   143  x127   *   143  x127   *   143  x127   *   
           *        388   *         389   *         390   *         391   *        
           *              *               *               *               *   
           ****************************************************************
           *              *               *               *               *   
        12 *  143  x127   *   143  x127   *   143  x127   *   143  x127   *   
           *        356   *         357   *         358   *         359   *        
           *              *               *               *               *   
           ****************************************************************
           *              *               *               *               *   
        11 *  143  x127   *   143  x127   *   143  x127   *   143  x127   *   
           *        324   *         325   *         326   *         327   *        
           *              *               *               *               *   
           ****************************************************************
           *              *               *               *               *   
        10 *  143  x127   *   143  x127   *   143  x127   *   143  x127   *   
           *        292   *         293   *         294   *         295   *        
           *              *               *               *               *   
           ****************************************************************
           *              *               *               *               *   
         9 *  143  x127   *   143  x127   *   143  x127   *   143  x127   *   
           *        260   *         261   *         262   *         263   *        
           *              *               *               *               *   
           ****************************************************************
           *              *               *               *               *   
         8 *  143  x127   *   143  x127   *   143  x127   *   143  x127   *   
           *        228   *         229   *         230   *         231   *        
           *              *               *               *               *   
           ****************************************************************
           *              *               *               *               *   
         7 *  143  x127   *   143  x127   *   143  x127   *   143  x127   *   
           *        196   *         197   *         198   *         199   *        
           *              *               *               *               *   
           ****************************************************************
           *              *               *               *               *   
         6 *  143  x127   *   143  x127   *   143  x127   *   143  x127   *   
           *        164   *         165   *         166   *         167   *        
           *              *               *               *               *   
           ****************************************************************
           *              *               *               *               *   
         5 *  143  x127   *   143  x127   *   143  x127   *   143  x127   *   
           *        132   *         133   *         134   *         135   *        
           *              *               *               *               *   
           ****************************************************************
           *              *               *               *               *   
         4 *  143  x127   *   143  x127   *   143  x127   *   143  x127   *   
           *        100   *         101   *         102   *         103   *        
           *              *               *               *               *   
           ****************************************************************
           *              *               *               *               *   
         3 *  143  x127   *   143  x127   *   143  x127   *   143  x127   *   
           *         68   *          69   *          70   *          71   *        
           *              *               *               *               *   
           ****************************************************************
           *              *               *               *               *   
         2 *  143  x127   *   143  x127   *   143  x127   *   143  x127   *   
           *         36   *          37   *          38   *          39   *        
           *              *               *               *               *   
           ****************************************************************
           *              *               *               *               *   
         1 *  143  x127   *   143  x127   *   143  x127   *   143  x127   *   
           *          4   *           5   *           6   *           7   *        
           *              *               *               *               *   
           ****************************************************************
                   5               6               7               8             
 
           ****************************************************************
           *              *               *               *               *   
        24 *  143  x127   *   143  x127   *   143  x127   *   143  x127   *   
           *        744   *         745   *         746   *         747   *        
           *              *               *               *               *   
           ****************************************************************
           *              *               *               *               *   
        23 *  143  x127   *   143  x127   *   143  x127   *   143  x127   *   
           *        712   *         713   *         714   *         715   *        
           *              *               *               *               *   
           ****************************************************************
           *              *               *               *               *   
        22 *  143  x127   *   143  x127   *   143  x127   *   143  x127   *   
           *        680   *         681   *         682   *         683   *        
           *              *               *               *               *   
           ****************************************************************
           *              *               *               *               *   
        21 *  143  x127   *   143  x127   *   143  x127   *   143  x127   *   
           *        648   *         649   *         650   *         651   *        
           *              *               *               *               *   
           ****************************************************************
           *              *               *               *               *   
        20 *  143  x127   *   143  x127   *   143  x127   *   143  x127   *   
           *        616   *         617   *         618   *         619   *        
           *              *               *               *               *   
           ****************************************************************
           *              *               *               *               *   
        19 *  143  x127   *   143  x127   *   143  x127   *   143  x127   *   
           *        584   *         585   *         586   *         587   *        
           *              *               *               *               *   
           ****************************************************************
           *              *               *               *               *   
        18 *  143  x127   *   143  x127   *   143  x127   *   143  x127   *   
           *        552   *         553   *         554   *         555   *        
           *              *               *               *               *   
           ****************************************************************
           *              *               *               *               *   
        17 *  143  x127   *   143  x127   *   143  x127   *   143  x127   *   
           *        520   *         521   *         522   *         523   *        
           *              *               *               *               *   
           ****************************************************************
           *              *               *               *               *   
        16 *  143  x127   *   143  x127   *   143  x127   *   143  x127   *   
           *        488   *         489   *         490   *         491   *        
           *              *               *               *               *   
           ****************************************************************
           *              *               *               *               *   
        15 *  143  x127   *   143  x127   *   143  x127   *   143  x127   *   
           *        456   *         457   *         458   *         459   *        
           *              *               *               *               *   
           ****************************************************************
           *              *               *               *               *   
        14 *  143  x127   *   143  x127   *   143  x127   *   143  x127   *   
           *        424   *         425   *         426   *         427   *        
           *              *               *               *               *   
           ****************************************************************
           *              *               *               *               *   
        13 *  143  x127   *   143  x127   *   143  x127   *   143  x127   *   
           *        392   *         393   *         394   *         395   *        
           *              *               *               *               *   
           ****************************************************************
           *              *               *               *               *   
        12 *  143  x127   *   143  x127   *   143  x127   *   143  x127   *   
           *        360   *         361   *         362   *         363   *        
           *              *               *               *               *   
           ****************************************************************
           *              *               *               *               *   
        11 *  143  x127   *   143  x127   *   143  x127   *   143  x127   *   
           *        328   *         329   *         330   *         331   *        
           *              *               *               *               *   
           ****************************************************************
           *              *               *               *               *   
        10 *  143  x127   *   143  x127   *   143  x127   *   143  x127   *   
           *        296   *         297   *         298   *         299   *        
           *              *               *               *               *   
           ****************************************************************
           *              *               *               *               *   
         9 *  143  x127   *   143  x127   *   143  x127   *   143  x127   *   
           *        264   *         265   *         266   *         267   *        
           *              *               *               *               *   
           ****************************************************************
           *              *               *               *               *   
         8 *  143  x127   *   143  x127   *   143  x127   *   143  x127   *   
           *        232   *         233   *         234   *         235   *        
           *              *               *               *               *   
           ****************************************************************
           *              *               *               *               *   
         7 *  143  x127   *   143  x127   *   143  x127   *   143  x127   *   
           *        200   *         201   *         202   *         203   *        
           *              *               *               *               *   
           ****************************************************************
           *              *               *               *               *   
         6 *  143  x127   *   143  x127   *   143  x127   *   143  x127   *   
           *        168   *         169   *         170   *         171   *        
           *              *               *               *               *   
           ****************************************************************
           *              *               *               *               *   
         5 *  143  x127   *   143  x127   *   143  x127   *   143  x127   *   
           *        136   *         137   *         138   *         139   *        
           *              *               *               *               *   
           ****************************************************************
           *              *               *               *               *   
         4 *  143  x127   *   143  x127   *   143  x127   *   143  x127   *   
           *        104   *         105   *         106   *         107   *        
           *              *               *               *               *   
           ****************************************************************
           *              *               *               *               *   
         3 *  143  x127   *   143  x127   *   143  x127   *   143  x127   *   
           *         72   *          73   *          74   *          75   *        
           *              *               *               *               *   
           ****************************************************************
           *              *               *               *               *   
         2 *  143  x127   *   143  x127   *   143  x127   *   143  x127   *   
           *         40   *          41   *          42   *          43   *        
           *              *               *               *               *   
           ****************************************************************
           *              *               *               *               *   
         1 *  143  x127   *   143  x127   *   143  x127   *   143  x127   *   
           *          8   *           9   *          10   *          11   *        
           *              *               *               *               *   
           ****************************************************************
                   9              10              11              12             
 
           ****************************************************************
           *              *               *               *               *   
        24 *  143  x127   *   143  x127   *   143  x127   *   143  x127   *   
           *        748   *         749   *         750   *         751   *        
           *              *               *               *               *   
           ****************************************************************
           *              *               *               *               *   
        23 *  143  x127   *   143  x127   *   143  x127   *   143  x127   *   
           *        716   *         717   *         718   *         719   *        
           *              *               *               *               *   
           ****************************************************************
           *              *               *               *               *   
        22 *  143  x127   *   143  x127   *   143  x127   *   143  x127   *   
           *        684   *         685   *         686   *         687   *        
           *              *               *               *               *   
           ****************************************************************
           *              *               *               *               *   
        21 *  143  x127   *   143  x127   *   143  x127   *   143  x127   *   
           *        652   *         653   *         654   *         655   *        
           *              *               *               *               *   
           ****************************************************************
           *              *               *               *               *   
        20 *  143  x127   *   143  x127   *   143  x127   *   143  x127   *   
           *        620   *         621   *         622   *         623   *        
           *              *               *               *               *   
           ****************************************************************
           *              *               *               *               *   
        19 *  143  x127   *   143  x127   *   143  x127   *   143  x127   *   
           *        588   *         589   *         590   *         591   *        
           *              *               *               *               *   
           ****************************************************************
           *              *               *               *               *   
        18 *  143  x127   *   143  x127   *   143  x127   *   143  x127   *   
           *        556   *         557   *         558   *         559   *        
           *              *               *               *               *   
           ****************************************************************
           *              *               *               *               *   
        17 *  143  x127   *   143  x127   *   143  x127   *   143  x127   *   
           *        524   *         525   *         526   *         527   *        
           *              *               *               *               *   
           ****************************************************************
           *              *               *               *               *   
        16 *  143  x127   *   143  x127   *   143  x127   *   143  x127   *   
           *        492   *         493   *         494   *         495   *        
           *              *               *               *               *   
           ****************************************************************
           *              *               *               *               *   
        15 *  143  x127   *   143  x127   *   143  x127   *   143  x127   *   
           *        460   *         461   *         462   *         463   *        
           *              *               *               *               *   
           ****************************************************************
           *              *               *               *               *   
        14 *  143  x127   *   143  x127   *   143  x127   *   143  x127   *   
           *        428   *         429   *         430   *         431   *        
           *              *               *               *               *   
           ****************************************************************
           *              *               *               *               *   
        13 *  143  x127   *   143  x127   *   143  x127   *   143  x127   *   
           *        396   *         397   *         398   *         399   *        
           *              *               *               *               *   
           ****************************************************************
           *              *               *               *               *   
        12 *  143  x127   *   143  x127   *   143  x127   *   143  x127   *   
           *        364   *         365   *         366   *         367   *        
           *              *               *               *               *   
           ****************************************************************
           *              *               *               *               *   
        11 *  143  x127   *   143  x127   *   143  x127   *   143  x127   *   
           *        332   *         333   *         334   *         335   *        
           *              *               *               *               *   
           ****************************************************************
           *              *               *               *               *   
        10 *  143  x127   *   143  x127   *   143  x127   *   143  x127   *   
           *        300   *         301   *         302   *         303   *        
           *              *               *               *               *   
           ****************************************************************
           *              *               *               *               *   
         9 *  143  x127   *   143  x127   *   143  x127   *   143  x127   *   
           *        268   *         269   *         270   *         271   *        
           *              *               *               *               *   
           ****************************************************************
           *              *               *               *               *   
         8 *  143  x127   *   143  x127   *   143  x127   *   143  x127   *   
           *        236   *         237   *         238   *         239   *        
           *              *               *               *               *   
           ****************************************************************
           *              *               *               *               *   
         7 *  143  x127   *   143  x127   *   143  x127   *   143  x127   *   
           *        204   *         205   *         206   *         207   *        
           *              *               *               *               *   
           ****************************************************************
           *              *               *               *               *   
         6 *  143  x127   *   143  x127   *   143  x127   *   143  x127   *   
           *        172   *         173   *         174   *         175   *        
           *              *               *               *               *   
           ****************************************************************
           *              *               *               *               *   
         5 *  143  x127   *   143  x127   *   143  x127   *   143  x127   *   
           *        140   *         141   *         142   *         143   *        
           *              *               *               *               *   
           ****************************************************************
           *              *               *               *               *   
         4 *  143  x127   *   143  x127   *   143  x127   *   143  x127   *   
           *        108   *         109   *         110   *         111   *        
           *              *               *               *               *   
           ****************************************************************
           *              *               *               *               *   
         3 *  143  x127   *   143  x127   *   143  x127   *   143  x127   *   
           *         76   *          77   *          78   *          79   *        
           *              *               *               *               *   
           ****************************************************************
           *              *               *               *               *   
         2 *  143  x127   *   143  x127   *   143  x127   *   143  x127   *   
           *         44   *          45   *          46   *          47   *        
           *              *               *               *               *   
           ****************************************************************
           *              *               *               *               *   
         1 *  143  x127   *   143  x127   *   143  x127   *   143  x127   *   
           *         12   *          13   *          14   *          15   *        
           *              *               *               *               *   
           ****************************************************************
                  13              14              15              16             
 
           ****************************************************************
           *              *               *               *               *   
        24 *  143  x127   *   143  x127   *   143  x127   *   143  x127   *   
           *        752   *         753   *         754   *         755   *        
           *              *               *               *               *   
           ****************************************************************
           *              *               *               *               *   
        23 *  143  x127   *   143  x127   *   143  x127   *   143  x127   *   
           *        720   *         721   *         722   *         723   *        
           *              *               *               *               *   
           ****************************************************************
           *              *               *               *               *   
        22 *  143  x127   *   143  x127   *   143  x127   *   143  x127   *   
           *        688   *         689   *         690   *         691   *        
           *              *               *               *               *   
           ****************************************************************
           *              *               *               *               *   
        21 *  143  x127   *   143  x127   *   143  x127   *   143  x127   *   
           *        656   *         657   *         658   *         659   *        
           *              *               *               *               *   
           ****************************************************************
           *              *               *               *               *   
        20 *  143  x127   *   143  x127   *   143  x127   *   143  x127   *   
           *        624   *         625   *         626   *         627   *        
           *              *               *               *               *   
           ****************************************************************
           *              *               *               *               *   
        19 *  143  x127   *   143  x127   *   143  x127   *   143  x127   *   
           *        592   *         593   *         594   *         595   *        
           *              *               *               *               *   
           ****************************************************************
           *              *               *               *               *   
        18 *  143  x127   *   143  x127   *   143  x127   *   143  x127   *   
           *        560   *         561   *         562   *         563   *        
           *              *               *               *               *   
           ****************************************************************
           *              *               *               *               *   
        17 *  143  x127   *   143  x127   *   143  x127   *   143  x127   *   
           *        528   *         529   *         530   *         531   *        
           *              *               *               *               *   
           ****************************************************************
           *              *               *               *               *   
        16 *  143  x127   *   143  x127   *   143  x127   *   143  x127   *   
           *        496   *         497   *         498   *         499   *        
           *              *               *               *               *   
           ****************************************************************
           *              *               *               *               *   
        15 *  143  x127   *   143  x127   *   143  x127   *   143  x127   *   
           *        464   *         465   *         466   *         467   *        
           *              *               *               *               *   
           ****************************************************************
           *              *               *               *               *   
        14 *  143  x127   *   143  x127   *   143  x127   *   143  x127   *   
           *        432   *         433   *         434   *         435   *        
           *              *               *               *               *   
           ****************************************************************
           *              *               *               *               *   
        13 *  143  x127   *   143  x127   *   143  x127   *   143  x127   *   
           *        400   *         401   *         402   *         403   *        
           *              *               *               *               *   
           ****************************************************************
           *              *               *               *               *   
        12 *  143  x127   *   143  x127   *   143  x127   *   143  x127   *   
           *        368   *         369   *         370   *         371   *        
           *              *               *               *               *   
           ****************************************************************
           *              *               *               *               *   
        11 *  143  x127   *   143  x127   *   143  x127   *   143  x127   *   
           *        336   *         337   *         338   *         339   *        
           *              *               *               *               *   
           ****************************************************************
           *              *               *               *               *   
        10 *  143  x127   *   143  x127   *   143  x127   *   143  x127   *   
           *        304   *         305   *         306   *         307   *        
           *              *               *               *               *   
           ****************************************************************
           *              *               *               *               *   
         9 *  143  x127   *   143  x127   *   143  x127   *   143  x127   *   
           *        272   *         273   *         274   *         275   *        
           *              *               *               *               *   
           ****************************************************************
           *              *               *               *               *   
         8 *  143  x127   *   143  x127   *   143  x127   *   143  x127   *   
           *        240   *         241   *         242   *         243   *        
           *              *               *               *               *   
           ****************************************************************
           *              *               *               *               *   
         7 *  143  x127   *   143  x127   *   143  x127   *   143  x127   *   
           *        208   *         209   *         210   *         211   *        
           *              *               *               *               *   
           ****************************************************************
           *              *               *               *               *   
         6 *  143  x127   *   143  x127   *   143  x127   *   143  x127   *   
           *        176   *         177   *         178   *         179   *        
           *              *               *               *               *   
           ****************************************************************
           *              *               *               *               *   
         5 *  143  x127   *   143  x127   *   143  x127   *   143  x127   *   
           *        144   *         145   *         146   *         147   *        
           *              *               *               *               *   
           ****************************************************************
           *              *               *               *               *   
         4 *  143  x127   *   143  x127   *   143  x127   *   143  x127   *   
           *        112   *         113   *         114   *         115   *        
           *              *               *               *               *   
           ****************************************************************
           *              *               *               *               *   
         3 *  143  x127   *   143  x127   *   143  x127   *   143  x127   *   
           *         80   *          81   *          82   *          83   *        
           *              *               *               *               *   
           ****************************************************************
           *              *               *               *               *   
         2 *  143  x127   *   143  x127   *   143  x127   *   143  x127   *   
           *         48   *          49   *          50   *          51   *        
           *              *               *               *               *   
           ****************************************************************
           *              *               *               *               *   
         1 *  143  x127   *   143  x127   *   143  x127   *   143  x127   *   
           *         16   *          17   *          18   *          19   *        
           *              *               *               *               *   
           ****************************************************************
                  17              18              19              20             
 
           ****************************************************************
           *              *               *               *               *   
        24 *  142  x127   *   142  x127   *   142  x127   *   142  x127   *   
           *        756   *         757   *         758   *         759   *        
           *              *               *               *               *   
           ****************************************************************
           *              *               *               *               *   
        23 *  142  x127   *   142  x127   *   142  x127   *   142  x127   *   
           *        724   *         725   *         726   *         727   *        
           *              *               *               *               *   
           ****************************************************************
           *              *               *               *               *   
        22 *  142  x127   *   142  x127   *   142  x127   *   142  x127   *   
           *        692   *         693   *         694   *         695   *        
           *              *               *               *               *   
           ****************************************************************
           *              *               *               *               *   
        21 *  142  x127   *   142  x127   *   142  x127   *   142  x127   *   
           *        660   *         661   *         662   *         663   *        
           *              *               *               *               *   
           ****************************************************************
           *              *               *               *               *   
        20 *  142  x127   *   142  x127   *   142  x127   *   142  x127   *   
           *        628   *         629   *         630   *         631   *        
           *              *               *               *               *   
           ****************************************************************
           *              *               *               *               *   
        19 *  142  x127   *   142  x127   *   142  x127   *   142  x127   *   
           *        596   *         597   *         598   *         599   *        
           *              *               *               *               *   
           ****************************************************************
           *              *               *               *               *   
        18 *  142  x127   *   142  x127   *   142  x127   *   142  x127   *   
           *        564   *         565   *         566   *         567   *        
           *              *               *               *               *   
           ****************************************************************
           *              *               *               *               *   
        17 *  142  x127   *   142  x127   *   142  x127   *   142  x127   *   
           *        532   *         533   *         534   *         535   *        
           *              *               *               *               *   
           ****************************************************************
           *              *               *               *               *   
        16 *  142  x127   *   142  x127   *   142  x127   *   142  x127   *   
           *        500   *         501   *         502   *         503   *        
           *              *               *               *               *   
           ****************************************************************
           *              *               *               *               *   
        15 *  142  x127   *   142  x127   *   142  x127   *   142  x127   *   
           *        468   *         469   *         470   *         471   *        
           *              *               *               *               *   
           ****************************************************************
           *              *               *               *               *   
        14 *  142  x127   *   142  x127   *   142  x127   *   142  x127   *   
           *        436   *         437   *         438   *         439   *        
           *              *               *               *               *   
           ****************************************************************
           *              *               *               *               *   
        13 *  142  x127   *   142  x127   *   142  x127   *   142  x127   *   
           *        404   *         405   *         406   *         407   *        
           *              *               *               *               *   
           ****************************************************************
           *              *               *               *               *   
        12 *  142  x127   *   142  x127   *   142  x127   *   142  x127   *   
           *        372   *         373   *         374   *         375   *        
           *              *               *               *               *   
           ****************************************************************
           *              *               *               *               *   
        11 *  142  x127   *   142  x127   *   142  x127   *   142  x127   *   
           *        340   *         341   *         342   *         343   *        
           *              *               *               *               *   
           ****************************************************************
           *              *               *               *               *   
        10 *  142  x127   *   142  x127   *   142  x127   *   142  x127   *   
           *        308   *         309   *         310   *         311   *        
           *              *               *               *               *   
           ****************************************************************
           *              *               *               *               *   
         9 *  142  x127   *   142  x127   *   142  x127   *   142  x127   *   
           *        276   *         277   *         278   *         279   *        
           *              *               *               *               *   
           ****************************************************************
           *              *               *               *               *   
         8 *  142  x127   *   142  x127   *   142  x127   *   142  x127   *   
           *        244   *         245   *         246   *         247   *        
           *              *               *               *               *   
           ****************************************************************
           *              *               *               *               *   
         7 *  142  x127   *   142  x127   *   142  x127   *   142  x127   *   
           *        212   *         213   *         214   *         215   *        
           *              *               *               *               *   
           ****************************************************************
           *              *               *               *               *   
         6 *  142  x127   *   142  x127   *   142  x127   *   142  x127   *   
           *        180   *         181   *         182   *         183   *        
           *              *               *               *               *   
           ****************************************************************
           *              *               *               *               *   
         5 *  142  x127   *   142  x127   *   142  x127   *   142  x127   *   
           *        148   *         149   *         150   *         151   *        
           *              *               *               *               *   
           ****************************************************************
           *              *               *               *               *   
         4 *  142  x127   *   142  x127   *   142  x127   *   142  x127   *   
           *        116   *         117   *         118   *         119   *        
           *              *               *               *               *   
           ****************************************************************
           *              *               *               *               *   
         3 *  142  x127   *   142  x127   *   142  x127   *   142  x127   *   
           *         84   *          85   *          86   *          87   *        
           *              *               *               *               *   
           ****************************************************************
           *              *               *               *               *   
         2 *  142  x127   *   142  x127   *   142  x127   *   142  x127   *   
           *         52   *          53   *          54   *          55   *        
           *              *               *               *               *   
           ****************************************************************
           *              *               *               *               *   
         1 *  142  x127   *   142  x127   *   142  x127   *   142  x127   *   
           *         20   *          21   *          22   *          23   *        
           *              *               *               *               *   
           ****************************************************************
                  21              22              23              24             
 
           ****************************************************************
           *              *               *               *               *   
        24 *  142  x127   *   142  x127   *   142  x127   *   142  x127   *   
           *        760   *         761   *         762   *         763   *        
           *              *               *               *               *   
           ****************************************************************
           *              *               *               *               *   
        23 *  142  x127   *   142  x127   *   142  x127   *   142  x127   *   
           *        728   *         729   *         730   *         731   *        
           *              *               *               *               *   
           ****************************************************************
           *              *               *               *               *   
        22 *  142  x127   *   142  x127   *   142  x127   *   142  x127   *   
           *        696   *         697   *         698   *         699   *        
           *              *               *               *               *   
           ****************************************************************
           *              *               *               *               *   
        21 *  142  x127   *   142  x127   *   142  x127   *   142  x127   *   
           *        664   *         665   *         666   *         667   *        
           *              *               *               *               *   
           ****************************************************************
           *              *               *               *               *   
        20 *  142  x127   *   142  x127   *   142  x127   *   142  x127   *   
           *        632   *         633   *         634   *         635   *        
           *              *               *               *               *   
           ****************************************************************
           *              *               *               *               *   
        19 *  142  x127   *   142  x127   *   142  x127   *   142  x127   *   
           *        600   *         601   *         602   *         603   *        
           *              *               *               *               *   
           ****************************************************************
           *              *               *               *               *   
        18 *  142  x127   *   142  x127   *   142  x127   *   142  x127   *   
           *        568   *         569   *         570   *         571   *        
           *              *               *               *               *   
           ****************************************************************
           *              *               *               *               *   
        17 *  142  x127   *   142  x127   *   142  x127   *   142  x127   *   
           *        536   *         537   *         538   *         539   *        
           *              *               *               *               *   
           ****************************************************************
           *              *               *               *               *   
        16 *  142  x127   *   142  x127   *   142  x127   *   142  x127   *   
           *        504   *         505   *         506   *         507   *        
           *              *               *               *               *   
           ****************************************************************
           *              *               *               *               *   
        15 *  142  x127   *   142  x127   *   142  x127   *   142  x127   *   
           *        472   *         473   *         474   *         475   *        
           *              *               *               *               *   
           ****************************************************************
           *              *               *               *               *   
        14 *  142  x127   *   142  x127   *   142  x127   *   142  x127   *   
           *        440   *         441   *         442   *         443   *        
           *              *               *               *               *   
           ****************************************************************
           *              *               *               *               *   
        13 *  142  x127   *   142  x127   *   142  x127   *   142  x127   *   
           *        408   *         409   *         410   *         411   *        
           *              *               *               *               *   
           ****************************************************************
           *              *               *               *               *   
        12 *  142  x127   *   142  x127   *   142  x127   *   142  x127   *   
           *        376   *         377   *         378   *         379   *        
           *              *               *               *               *   
           ****************************************************************
           *              *               *               *               *   
        11 *  142  x127   *   142  x127   *   142  x127   *   142  x127   *   
           *        344   *         345   *         346   *         347   *        
           *              *               *               *               *   
           ****************************************************************
           *              *               *               *               *   
        10 *  142  x127   *   142  x127   *   142  x127   *   142  x127   *   
           *        312   *         313   *         314   *         315   *        
           *              *               *               *               *   
           ****************************************************************
           *              *               *               *               *   
         9 *  142  x127   *   142  x127   *   142  x127   *   142  x127   *   
           *        280   *         281   *         282   *         283   *        
           *              *               *               *               *   
           ****************************************************************
           *              *               *               *               *   
         8 *  142  x127   *   142  x127   *   142  x127   *   142  x127   *   
           *        248   *         249   *         250   *         251   *        
           *              *               *               *               *   
           ****************************************************************
           *              *               *               *               *   
         7 *  142  x127   *   142  x127   *   142  x127   *   142  x127   *   
           *        216   *         217   *         218   *         219   *        
           *              *               *               *               *   
           ****************************************************************
           *              *               *               *               *   
         6 *  142  x127   *   142  x127   *   142  x127   *   142  x127   *   
           *        184   *         185   *         186   *         187   *        
           *              *               *               *               *   
           ****************************************************************
           *              *               *               *               *   
         5 *  142  x127   *   142  x127   *   142  x127   *   142  x127   *   
           *        152   *         153   *         154   *         155   *        
           *              *               *               *               *   
           ****************************************************************
           *              *               *               *               *   
         4 *  142  x127   *   142  x127   *   142  x127   *   142  x127   *   
           *        120   *         121   *         122   *         123   *        
           *              *               *               *               *   
           ****************************************************************
           *              *               *               *               *   
         3 *  142  x127   *   142  x127   *   142  x127   *   142  x127   *   
           *         88   *          89   *          90   *          91   *        
           *              *               *               *               *   
           ****************************************************************
           *              *               *               *               *   
         2 *  142  x127   *   142  x127   *   142  x127   *   142  x127   *   
           *         56   *          57   *          58   *          59   *        
           *              *               *               *               *   
           ****************************************************************
           *              *               *               *               *   
         1 *  142  x127   *   142  x127   *   142  x127   *   142  x127   *   
           *         24   *          25   *          26   *          27   *        
           *              *               *               *               *   
           ****************************************************************
                  25              26              27              28             
 
           ****************************************************************
           *              *               *               *               *   
        24 *  142  x127   *   142  x127   *   142  x127   *   142  x127   *   
           *        764   *         765   *         766   *         767   *        
           *              *               *               *               *   
           ****************************************************************
           *              *               *               *               *   
        23 *  142  x127   *   142  x127   *   142  x127   *   142  x127   *   
           *        732   *         733   *         734   *         735   *        
           *              *               *               *               *   
           ****************************************************************
           *              *               *               *               *   
        22 *  142  x127   *   142  x127   *   142  x127   *   142  x127   *   
           *        700   *         701   *         702   *         703   *        
           *              *               *               *               *   
           ****************************************************************
           *              *               *               *               *   
        21 *  142  x127   *   142  x127   *   142  x127   *   142  x127   *   
           *        668   *         669   *         670   *         671   *        
           *              *               *               *               *   
           ****************************************************************
           *              *               *               *               *   
        20 *  142  x127   *   142  x127   *   142  x127   *   142  x127   *   
           *        636   *         637   *         638   *         639   *        
           *              *               *               *               *   
           ****************************************************************
           *              *               *               *               *   
        19 *  142  x127   *   142  x127   *   142  x127   *   142  x127   *   
           *        604   *         605   *         606   *         607   *        
           *              *               *               *               *   
           ****************************************************************
           *              *               *               *               *   
        18 *  142  x127   *   142  x127   *   142  x127   *   142  x127   *   
           *        572   *         573   *         574   *         575   *        
           *              *               *               *               *   
           ****************************************************************
           *              *               *               *               *   
        17 *  142  x127   *   142  x127   *   142  x127   *   142  x127   *   
           *        540   *         541   *         542   *         543   *        
           *              *               *               *               *   
           ****************************************************************
           *              *               *               *               *   
        16 *  142  x127   *   142  x127   *   142  x127   *   142  x127   *   
           *        508   *         509   *         510   *         511   *        
           *              *               *               *               *   
           ****************************************************************
           *              *               *               *               *   
        15 *  142  x127   *   142  x127   *   142  x127   *   142  x127   *   
           *        476   *         477   *         478   *         479   *        
           *              *               *               *               *   
           ****************************************************************
           *              *               *               *               *   
        14 *  142  x127   *   142  x127   *   142  x127   *   142  x127   *   
           *        444   *         445   *         446   *         447   *        
           *              *               *               *               *   
           ****************************************************************
           *              *               *               *               *   
        13 *  142  x127   *   142  x127   *   142  x127   *   142  x127   *   
           *        412   *         413   *         414   *         415   *        
           *              *               *               *               *   
           ****************************************************************
           *              *               *               *               *   
        12 *  142  x127   *   142  x127   *   142  x127   *   142  x127   *   
           *        380   *         381   *         382   *         383   *        
           *              *               *               *               *   
           ****************************************************************
           *              *               *               *               *   
        11 *  142  x127   *   142  x127   *   142  x127   *   142  x127   *   
           *        348   *         349   *         350   *         351   *        
           *              *               *               *               *   
           ****************************************************************
           *              *               *               *               *   
        10 *  142  x127   *   142  x127   *   142  x127   *   142  x127   *   
           *        316   *         317   *         318   *         319   *        
           *              *               *               *               *   
           ****************************************************************
           *              *               *               *               *   
         9 *  142  x127   *   142  x127   *   142  x127   *   142  x127   *   
           *        284   *         285   *         286   *         287   *        
           *              *               *               *               *   
           ****************************************************************
           *              *               *               *               *   
         8 *  142  x127   *   142  x127   *   142  x127   *   142  x127   *   
           *        252   *         253   *         254   *         255   *        
           *              *               *               *               *   
           ****************************************************************
           *              *               *               *               *   
         7 *  142  x127   *   142  x127   *   142  x127   *   142  x127   *   
           *        220   *         221   *         222   *         223   *        
           *              *               *               *               *   
           ****************************************************************
           *              *               *               *               *   
         6 *  142  x127   *   142  x127   *   142  x127   *   142  x127   *   
           *        188   *         189   *         190   *         191   *        
           *              *               *               *               *   
           ****************************************************************
           *              *               *               *               *   
         5 *  142  x127   *   142  x127   *   142  x127   *   142  x127   *   
           *        156   *         157   *         158   *         159   *        
           *              *               *               *               *   
           ****************************************************************
           *              *               *               *               *   
         4 *  142  x127   *   142  x127   *   142  x127   *   142  x127   *   
           *        124   *         125   *         126   *         127   *        
           *              *               *               *               *   
           ****************************************************************
           *              *               *               *               *   
         3 *  142  x127   *   142  x127   *   142  x127   *   142  x127   *   
           *         92   *          93   *          94   *          95   *        
           *              *               *               *               *   
           ****************************************************************
           *              *               *               *               *   
         2 *  142  x127   *   142  x127   *   142  x127   *   142  x127   *   
           *         60   *          61   *          62   *          63   *        
           *              *               *               *               *   
           ****************************************************************
           *              *               *               *               *   
         1 *  142  x127   *   142  x127   *   142  x127   *   142  x127   *   
           *         28   *          29   *          30   *          31   *        
           *              *               *               *               *   
           ****************************************************************
                  29              30              31              32             
 
    resulting internal parameters : 
       nproc  =  0
       nowe   =  -1    noea  =   1
       nono   =  32    noso  =   -1
       nbondi =  -1
       nbondj =  -1
       npolj  =  0
     l_Iperio =  F
     l_Jperio =  F
       nlci   =  143
       nlcj   =  127
       nimpp  =  1
       njmpp  =  1
       nreci  =  2
       nrecj  =  2
       nn_hls =  1
 
 mpp_init_ioipsl :   iloc  =  143,  127
 ~~~~~~~~~~~~~~~     iabsf =  2*1
                     ihals =  2*0
                     ihale =  2*1
 
 nemo_ctl: Control prints
 ~~~~~~~~
    Namelist namctl
[...]
       non-linear  drag: Cd = Cd0_nl |U|         ln_non_lin  =  T
       logarithmic drag: Cd = vkarmn/log(z/z0)   ln_loglayer =  F
       implicit friction                         ln_drgimp   =  T
       implicit ice-ocean drag                   ln_drgice_imp  = F
 
    Namelist namdrg_bot : set BOTTOM friction parameters
       drag coefficient                        rn_Cd0   =  1.00000000000000002E-3
       characteristic velocity (linear case)   rn_Uc0   =  0.40000000000000002  m/s
       non-linear drag maximum                 rn_Cdmax =  0.10000000000000001
       background kinetic energy  (n-l case)   rn_ke0   =  2.50000000000000005E-3
       bottom roughness           (n-l case)   rn_z0    =  3.00000000000000006E-3
       set a regional boost of Cd0             ln_boost =  F
          associated boost factor              rn_boost =  50.
 
    ==>>>   quadratic BOTTOM friction (propotional to module of the velocity)
    with    a drag coefficient Cd0 =  1.00000000000000002E-3 , and
            a background velocity module of (rn_ke0)^1/2 =  5.00000000000000028E-2 m/s)
 
 ldf_tra_init : lateral tracer diffusion
 ~~~~~~~~~~~~ 
    Namelist : namtra_ldf --- lateral mixing parameters (type, direction, coefficients)
       type :
          no explicit diffusion                   ln_traldf_OFF   =  F
          laplacian operator                      ln_traldf_lap   =  T
          bilaplacian operator                    ln_traldf_blp   =  F
       direction of action :
          iso-level                               ln_traldf_lev   =  F
          horizontal (geopotential)               ln_traldf_hor   =  F
          iso-neutral Madec operator              ln_traldf_iso   =  T
          iso-neutral triad operator              ln_traldf_triad =  F
             use the Method of Stab. Correction   ln_traldf_msc   =  F
             maximum isoppycnal slope             rn_slpmax       =  1.00000000000000002E-2
             pure lateral mixing in ML            ln_triad_iso    =  F
             switching triad or not               rn_sw_triad     =  1.
             lateral mixing on bottom             ln_botmix_triad =  F
       coefficients :
          type of time-space variation            nn_aht_ijk_t    =  0
             lateral diffusive velocity (if cst)  rn_Ud           =  2.00000000000000004E-2  m/s
             lateral diffusive length   (if cst)  rn_Ld           =  100000.  m
 
    ==>>>   Rotated laplacian operator (standard)
 
    ==>>>   eddy diffusivity = constant =  1000.  m2/s
 
 ldf_eiv_init : eddy induced velocity parametrization
 ~~~~~~~~~~~~ 
    Namelist namtra_eiv : 
       Eddy Induced Velocity (eiv) param.         ln_ldfeiv     =  F
       eiv streamfunction & velocity diag.        ln_ldfeiv_dia =  F
       coefficients :
          type of time-space variation            nn_aei_ijk_t  =  0
          lateral diffusive velocity (if cst)     rn_Ue         =  2.00000000000000004E-2  m/s
          lateral diffusive length   (if cst)     rn_Le         =  200000.  m
 
    ==>>>   eddy induced velocity param is NOT used
 
 ldf_dyn : lateral momentum physics
 ~~~~~~~
    Namelist namdyn_ldf : set lateral mixing parameters
       type :
          no explicit diffusion                ln_dynldf_OFF =  F
          laplacian operator                   ln_dynldf_lap =  T
          bilaplacian operator                 ln_dynldf_blp =  F
       direction of action :
          iso-level                            ln_dynldf_lev =  T
          horizontal (geopotential)            ln_dynldf_hor =  F
          iso-neutral                          ln_dynldf_iso =  F
       coefficients :
          type of time-space variation         nn_ahm_ijk_t  =  0
          lateral viscous velocity  (if cst)      rn_Uv      =  2.  m/s
          lateral viscous length    (if cst)      rn_Lv      =  100000.  m
          background viscosity (iso-lap case)     rn_ahm_b   =  0.  m2/s
       Smagorinsky settings (nn_ahm_ijk_t  = 32) :
          Smagorinsky coefficient              rn_csmc       =  3.5
          factor multiplier for eddy visc.
             lower limit (default 1.0)         rn_minfac    =  1.
             upper limit (default 1.0)         rn_maxfac    =  1.
 
    ==>>>   iso-level laplacian operator
 
    ==>>>   eddy viscosity. = constant =  100000.  m2/s
 
 tra_qsr_init : penetration of the surface solar radiation
 ~~~~~~~~~~~~
    Namelist namtra_qsr : set the parameter of penetration
       RGB (Red-Green-Blue) light penetration       ln_qsr_rgb =  F
       2 band               light penetration       ln_qsr_2bd =  T
       bio-model            light penetration       ln_qsr_bio =  F
       RGB : Chl data (=1) or cst value (=0)        nn_chldta  =  0
       RGB & 2 bands: fraction of light (rn_si1)    rn_abs     =  0.57999999999999996
       RGB & 2 bands: shortess depth of extinction  rn_si0     =  0.34999999999999998
       2 bands: longest depth of extinction         rn_si1     =  23.
 
    ==>>>   2 bands light penetration
         level of light extinction =  18  ref depth =  969.84377441468268  m
 
 tra_bbc : Bottom Boundary Condition (bbc), apply a Geothermal heating
 ~~~~~~~   
    Namelist nambbc : set bbc parameters
       Apply a geothermal heating at ocean bottom   ln_trabbc     =  F
       type of geothermal flux                      nn_geoflx     =  2
       Constant geothermal flux value               rn_geoflx_cst =  8.64000000000000046E-2
 
    ==>>>   no geothermal heat flux
 
 tra_bbl_init : bottom boundary layer initialisation
 ~~~~~~~~~~~~
        Namelist nambbl : set bbl parameters
           bottom boundary layer flag          ln_trabbl  =  F
 
 tra_dmp_init : T and S newtonian relaxation
 ~~~~~~~~~~~~
    Namelist namtra_dmp : set relaxation parameters
       Apply relaxation   or not       ln_tradmp   =  F
          mixed layer damping option      nn_zdmp  =  0
          Damping file name               cn_resto = resto.nc                                                                                                                                                                                                
 
 
 tra_adv_init : choice/control of the tracer advection scheme
 ~~~~~~~~~~~~
    Namelist namtra_adv : chose a advection scheme for tracers
       No advection on T & S                     ln_traadv_OFF =  F
       centered scheme                           ln_traadv_cen =  F
             horizontal 2nd/4th order               nn_cen_h   =  2
             vertical   2nd/4th order               nn_cen_v   =  2
       Flux Corrected Transport scheme           ln_traadv_fct =  T
             horizontal 2nd/4th order               nn_fct_h   =  2
             vertical   2nd/4th order               nn_fct_v   =  2
       MUSCL scheme                              ln_traadv_mus =  F
             + upstream scheme near river mouths    ln_mus_ups =  F
       UBS scheme                                ln_traadv_ubs =  F
             vertical   2nd/4th order               nn_ubs_v   =  2
       QUICKEST scheme                           ln_traadv_qck =  F
 
    ==>>>   FCT      scheme is used. Horizontal order:  2  Vertical   order:  2
 
 tra_mle_init : mixed layer eddy (MLE) advection acting on tracers
 ~~~~~~~~~~~~~
    Namelist namtra_mle : mixed layer eddy advection applied on tracers
       use mixed layer eddy (MLE, i.e. Fox-Kemper param) (T/F)      ln_mle       =  F
          MLE type: =0 standard Fox-Kemper ; =1 new formulation        nn_mle    =  1
          magnitude of the MLE (typical value: 0.06 to 0.08)           rn_ce     =  5.99999999999999978E-2
          scale of ML front (ML radius of deformation) (rn_mle=0)      rn_lf     =  5000. m
          maximum time scale of MLE                    (rn_mle=0)      rn_time   =  172800. s
          reference latitude (degrees) of MLE coef.    (rn_mle=1)      rn_lat    =  20. deg
          space interp. of MLD at u-(v-)pts (0=min,1=averaged,2=max)   nn_mld_uv =  0
          =1 no MLE in case of convection ; =0 always MLE              nn_conv   =  0
          Density difference used to define ML for FK              rn_rho_c_mle  =  1.00000000000000002E-2
 
    ==>>>   Mixed Layer Eddy parametrisation NOT used
 
 tra_ldf_init : lateral tracer diffusive operator
 ~~~~~~~~~~~~
    Namelist namtra_ldf: already read in ldftra module
       see ldf_tra_init report for lateral mixing parameters
 
    ==>>>   Rotated laplacian operator (standard)
 
 dyn_adv_init : choice/control of the momentum advection scheme
 ~~~~~~~~~~~~
    Namelist namdyn_adv : chose a advection formulation & scheme for momentum
       linear dynamics : no momentum advection          ln_dynadv_OFF  =  F
       Vector form: 2nd order centered scheme           ln_dynadv_vec  =  T
          with Hollingsworth scheme (=1) or not (=0)       nn_dynkeg   =  0
       flux form: 2nd order centred scheme              ln_dynadv_cen2 =  F
                  3rd order UBS scheme                  ln_dynadv_ubs  =  F
 
    ==>>>   vector form : keg + zad + vor is used
               with Centered standard keg scheme
 
 dyn_vor_init : vorticity term : read namelist and control the consistency
 ~~~~~~~~~~~~
    Namelist namdyn_vor : choice of the vorticity term scheme
       enstrophy conserving scheme                    ln_dynvor_ens =  F
       f-point energy conserving scheme               ln_dynvor_ene =  T
       t-point energy conserving scheme               ln_dynvor_enT =  F
       energy conserving scheme  (een using e3t)      ln_dynvor_eeT =  F
       enstrophy and energy conserving scheme         ln_dynvor_een =  F
          e3f = averaging /4 (=0) or /sum(tmask) (=1)    nn_een_e3f =  0
       mixed enstrophy/energy conserving scheme       ln_dynvor_mix =  F
       masked (=T) or unmasked(=F) vorticity          ln_dynvor_msk =  F
 
       change fmask value in the angles (T)           ln_vorlat =  F
 
    ==>>>   vector form dynamics : total vorticity = Coriolis + relative vorticity
 
    ==>>>   energy conserving scheme (Coriolis at F-points) (ENE)
 
 dyn_ldf_init : Choice of the lateral diffusive operator on dynamics
 ~~~~~~~~~~~~
    Namelist namdyn_ldf: already read in ldfdyn module
       see ldf_dyn_init report for lateral mixing parameters
 
    ==>>>   iso-level laplacian operator
 
 dyn_hpg_init : hydrostatic pressure gradient initialisation
 ~~~~~~~~~~~~
    Namelist namdyn_hpg : choice of hpg scheme
       z-coord. - full steps                             ln_hpg_zco    =  T
       z-coord. - partial steps (interpolation)          ln_hpg_zps    =  F
       s-coord. (standard jacobian formulation)          ln_hpg_sco    =  F
       s-coord. (standard jacobian formulation) for isf  ln_hpg_isf    =  F
       s-coord. (Density Jacobian: Cubic polynomial)     ln_hpg_djc    =  F
       s-coord. (Pressure Jacobian: Cubic polynomial)    ln_hpg_prj    =  F
 
    ==>>>   z-coord. - full steps 
 
 
 dyn_spg_init : choice of the surface pressure gradient scheme
 ~~~~~~~~~~~~
    Namelist : namdyn_spg                    
       Explicit free surface                  ln_dynspg_exp =  F
       Free surface with time splitting       ln_dynspg_ts  =  T
 
    ==>>>   free surface with time splitting scheme
 
 dyn_spg_ts_init : split-explicit free surface
 ~~~~~~~~~~~~~~~
      ln_ts_auto =.true. Automatically set nn_baro 
      Max. courant number allowed:  0.80000000000000004
      ln_bt_av =.true.  ==> Time averaging over nn_baro time steps is on 
      ln_bt_fw=.true.  => Forward integration of barotropic variables 
      Time filter choice, nn_bt_flt:  1
            Boxcar: width = nn_baro
  
      nn_baro =  5
      Barotropic time step [s] is : 240.
      Maximum Courant number is   : 0.65758332572732325
      Time diffusion parameter rn_bt_alpha:  0.
 
    ==>>>   start from rest: set barotropic values to 0
 
 ldf_slp_init : direction of lateral mixing
 ~~~~~~~~~~~~
    ==>>>   iso operator (Madec)
 
 icb_nam : iceberg initialization through namberg namelist read
 ~~~~~~~~ 
 
    ==>>>   No icebergs used
 
 sto_par_init : NO use of stochastic parameterization
 ~~~~~~~~~~~~
 
 flo_stp : call floats routine 
 ~~~~~~~
 
          Namelist floats :
             Activate floats or not                   ln_floats    =  F
                number of floats                      jpnfl        =  1
                number of new floats                  jpnflnewflo  =  0
                restart                               ln_rstflo    =  F
                frequency of float output file        nn_writefl   =  75
                frequency of float restart file       nn_stockfl   =  5475
                Argo type floats                      ln_argo      =  F
                Computation of T trajectories         ln_flork4    =  F
                Use of ariane convention              ln_ariane    =  T
                ascii output (T) or netcdf output (F) ln_flo_ascii =  T
 
  ===>>> : W A R N I N G
 
          ===============
 
 end of record or file while reading namelist namptr in configuration namelist iostat = -4001
 
 
 dia_ptr_init : poleward transport and msf initialization
 ~~~~~~~~~~~~
    Namelist namptr : set ptr parameters
       Poleward heat & salt transport (T) or not (F)      ln_diaptr  =  F
  
 diadct_init: compute transports through sections 
 ~~~~~~~~~~~~~~~~~~~~~
        Calculate transport thru sections: ln_diadct =  F
        Frequency of computation:          nn_dct    =  15
        Frequency of write:                nn_dctwri =  15
        Debug section number:  112
 
 dia_hsb_init : heat and salt budgets diagnostics
 ~~~~~~~~~~~~ 
    Namelist  namhsb :
       check the heat and salt budgets (T) or not (F)       ln_diahsb =  F
 
 trd_init : Momentum/Tracers trends
 ~~~~~~~~
    Namelist namtrd : set trends parameters
       global domain averaged dyn & tra trends   ln_glo_trd  =  F
       U & V trends: 3D output                   ln_dyn_trd  =  F
       U & V trends: Mixed Layer averaged        ln_dyn_mxl  =  F
       T & S trends: 3D output                   ln_tra_trd  =  F
       T & S trends: Mixed Layer averaged        ln_tra_mxl  =  F
       Kinetic   Energy trends                   ln_KE_trd   =  F
       Potential Energy trends                   ln_PE_trd   =  F
       Barotropic vorticity trends               ln_vor_trd  =  F
       frequency of trends diagnostics (glo)     nn_trd      =  365
 
 dia_obs_init : NO Observation diagnostic used
 ~~~~~~~~~~~~
 
 dia_25h_init : Output 25 hour mean diagnostics
 ~~~~~~~~~~~~
    Namelist nam_dia25h : set 25h outputs 
       Switch for 25h diagnostics (T) or not (F)  ln_dia25h  =  F
 
 dia_harm_init: Tidal harmonic analysis initialization
 ~~~~~~~~~~~~~ 
 Tidal diagnostics =  F
    First time step used for analysis:         nit000_han=  1
    Last  time step used for analysis:         nitend_han=  75
    Time step frequency for harmonic analysis: nstep_han =  15

AAAAAAAA


AAAAAAAA

 
 usrdef_sbc_oce : analytical surface fluxes for GYRE configuration
 ~~~~~~~~~~~ 
            nyear      =  1
            nmonth     =  1
            nday       =  1
            nday_year  =  1
            ztime      =  0.33333333333333331
            ztimemax   =  4104.
            ztimemin   =  8424.
            ztimemax1  =  4104.
            ztimemin1  =  8424.
            ztimemax2  =  4824.
            ztimemin2  =  504.
            zyear0     =  1
            zmonth0    =  1
            zday0      =  1
            zday_year0 =  1
            zyydd      =  360.
            zemp_S     =  0.69999999999999996
            zemp_N     =  0.80000000000000004
            zemp_sais  =  0.10000000000000001
            zTstar     =  28.300000000000001
            zsumemp    =  8.49515100749997416E-6
            zsurf      =  13500000.
            ztrp       =  -40.
            zconv      =  3.16000000000000024E-5
            ndastp     =  10101
            adatrj     =  1.38888888888888881E-2
           nit000-1 surface forcing fields set to nit000
 
 zdf_evd : Enhanced Vertical Diffusion (evd)
 ~~~~~~~ 
 
 
 zdf_mxl : mixed layer depth
 ~~~~~~~ 
 
 ssh_nxt : after sea surface height
 ~~~~~~~ 
 
 div_hor : horizontal velocity divergence 
 ~~~~~~~   
 
 wzv : now vertical velocity 
 ~~~~~ 
 
 dyn_keg : kinetic energy gradient trend, scheme number= 0
 ~~~~~~~
 
 dyn_zad : 2nd order vertical advection scheme
 
 dyn:vor_ene : vorticity term: energy conserving scheme
 ~~~~~~~~~~~
 
 dyn_ldf : iso-level harmonic (laplacian) operator, pass= 1
 ~~~~~~~ 
 
 dyn:hpg_zco : hydrostatic pressure gradient trend
 ~~~~~~~~~~~   z-coordinate case 
 
 dyn_spg_ts : surface pressure gradient trend
 ~~~~~~~~~~   free surface with time splitting
 
 
 div_hor : horizontal velocity divergence 
 ~~~~~~~   
 
 dyn_zdf_imp : vertical momentum diffusion implicit operator
 ~~~~~~~~~~~ 
 
 wzv : now vertical velocity 
 ~~~~~ 
 
 tra_sbc : TRAcer Surface Boundary Condition
 ~~~~~~~ 
 
 tra_qsr : penetration of the surface solar radiation
 ~~~~~~~
 
 tra_adv_fct : FCT advection scheme on TRA
 ~~~~~~~~~~~
 
 tra_ldf_iso : rotated laplacian diffusion operator on TRA
 ~~~~~~~~~~~
 
 tra_zdf : implicit vertical mixing on T & S
 ~~~~~~~ 
 
 tra_nxt : achieve the time stepping by Asselin filter and array swap
 ~~~~~~~
 
 dyn_nxt : time stepping
 ~~~~~~~
 
 ssh_swp : Asselin time filter and swap of sea surface height
 ~~~~~~~ 
 
 stp_ctl : time-stepping control
 ~~~~~~~
      file   : time.step open ok
      unit   =  21
      status = REPLACE
      form   = FORMATTED
      access = SEQUENTIAL
 
======>> time-step =      73      New day, DATE Y/M/D = 0001/01/02      nday_year = 002
         nsec_year =    87000   nsec_month =   87000   nsec_day =   600
   nsec_week =   173400
======>> time-step =     145      New day, DATE Y/M/D = 0001/01/03      nday_year = 003
         nsec_year =   173400   nsec_month =  173400   nsec_day =   600
   nsec_week =   259800
======>> time-step =     217      New day, DATE Y/M/D = 0001/01/04      nday_year = 004
         nsec_year =   259800   nsec_month =  259800   nsec_day =   600
   nsec_week =   346200
======>> time-step =     289      New day, DATE Y/M/D = 0001/01/05      nday_year = 005
         nsec_year =   346200   nsec_month =  346200   nsec_day =   600
   nsec_week =   432600
======>> time-step =     361      New day, DATE Y/M/D = 0001/01/06      nday_year = 006
         nsec_year =   432600   nsec_month =  432600   nsec_day =   600
   nsec_week =   519000
======>> time-step =     433      New day, DATE Y/M/D = 0001/01/07      nday_year = 007
         nsec_year =   519000   nsec_month =  519000   nsec_day =   600
   nsec_week =   605400
======>> time-step =     505      New day, DATE Y/M/D = 0001/01/08      nday_year = 008
         nsec_year =   605400   nsec_month =  605400   nsec_day =   600
   nsec_week =    87000
======>> time-step =     577      New day, DATE Y/M/D = 0001/01/09      nday_year = 009
         nsec_year =   691800   nsec_month =  691800   nsec_day =   600
   nsec_week =   173400
======>> time-step =     649      New day, DATE Y/M/D = 0001/01/10      nday_year = 010
         nsec_year =   778200   nsec_month =  778200   nsec_day =   600
   nsec_week =   259800
======>> time-step =     721      New day, DATE Y/M/D = 0001/01/11      nday_year = 011
         nsec_year =   864600   nsec_month =  864600   nsec_day =   600
   nsec_week =   346200
======>> time-step =     793      New day, DATE Y/M/D = 0001/01/12      nday_year = 012
         nsec_year =   951000   nsec_month =  951000   nsec_day =   600
   nsec_week =   432600
======>> time-step =     865      New day, DATE Y/M/D = 0001/01/13      nday_year = 013
         nsec_year =  1037400   nsec_month = 1037400   nsec_day =   600
   nsec_week =   519000
======>> time-step =     937      New day, DATE Y/M/D = 0001/01/14      nday_year = 014
         nsec_year =  1123800   nsec_month = 1123800   nsec_day =   600
   nsec_week =   605400

AAAAAAAA

