
    CNRS - NERC - Met OFFICE - MERCATOR-ocean - CMCC
                        NEMO team
             Ocean General Circulation Model
                 NEMO version 4.0  (2019) 

            ._      ._      ._      ._      ._    
        _.-._)`\_.-._)`\_.-._)`\_.-._)`\_.-._)`\_ 

            o         _,           _,             
             o      .' (        .-' /             
            o     _/..._'.    .'   /              
       (    o .-'`      ` '-./  _.'               
        )    ( o)           ;= <_         (       
       (      '-.,\\__ __.-;`\   '.        )      
        )  )       \) |`\ \)  '.   \      (   (   
       (  (           \_/       '-._\      )   )  
        )  ) jgs                     `    (   (   
      ^^^^^^^^^^^^^^^^^^^^^^^^^^^^^^^^^^^^^^^^^^^ 


AAAAAAAA

    
 usr_def_nam  : read the user defined namelist (namusr_def) in namelist_cfg
 ~~~~~~~~~~~ 
    Namelist namusr_def : GYRE case
       GYRE used as Benchmark (=T)                      ln_bench  =  T
       inverse resolution & implied domain size         nn_GYRE   =          150
          jpiglo = 30*nn_GYRE+2                            jpiglo =         4502
          jpjglo = 20*nn_GYRE+2                            jpjglo =         3002
       number of model levels                              jpkglo =           31
    
    Lateral b.c. of the global domain set to closed        jperio =            0
    Namelist nammpp
       jpni and jpnj will be calculated automatically
       avoid use of mpi_allgather at the north fold  ln_nnogather =  T
 mpp_init:
 ~~~~~~~~ 

    ==> you use the best mpi decomposition

   Number of mpi processes:  1536
   Number of ocean subdomains =  1536
   Number of suppressed land subdomains =     0


 MPI Message Passing MPI - domain lay out over processors

    defines mpp subdomains
       jpni =           48
       jpnj =           32

       sum ilci(i,1) =         4596  jpiglo =         4502
       sum ilcj(1,j) =         3064  jpjglo =         3002

           ****************************************************************
           *              *               *               *               *   
        32 *   96  x 95   *    96  x 95   *    96  x 95   *    96  x 95   *   
           *       1488   *        1489   *        1490   *        1491   *        
           *              *               *               *               *   
           ****************************************************************
           *              *               *               *               *   
        31 *   96  x 95   *    96  x 95   *    96  x 95   *    96  x 95   *   
           *       1440   *        1441   *        1442   *        1443   *        
           *              *               *               *               *   
           ****************************************************************
           *              *               *               *               *   
        30 *   96  x 95   *    96  x 95   *    96  x 95   *    96  x 95   *   
           *       1392   *        1393   *        1394   *        1395   *        
           *              *               *               *               *   
           ****************************************************************
           *              *               *               *               *   
        29 *   96  x 95   *    96  x 95   *    96  x 95   *    96  x 95   *   
           *       1344   *        1345   *        1346   *        1347   *        
           *              *               *               *               *   
           ****************************************************************
           *              *               *               *               *   
        28 *   96  x 95   *    96  x 95   *    96  x 95   *    96  x 95   *   
           *       1296   *        1297   *        1298   *        1299   *        
           *              *               *               *               *   
           ****************************************************************
           *              *               *               *               *   
        27 *   96  x 95   *    96  x 95   *    96  x 95   *    96  x 95   *   
           *       1248   *        1249   *        1250   *        1251   *        
           *              *               *               *               *   
           ****************************************************************
           *              *               *               *               *   
        26 *   96  x 95   *    96  x 95   *    96  x 95   *    96  x 95   *   
           *       1200   *        1201   *        1202   *        1203   *        
           *              *               *               *               *   
           ****************************************************************
           *              *               *               *               *   
        25 *   96  x 95   *    96  x 95   *    96  x 95   *    96  x 95   *   
           *       1152   *        1153   *        1154   *        1155   *        
           *              *               *               *               *   
           ****************************************************************
           *              *               *               *               *   
        24 *   96  x 96   *    96  x 96   *    96  x 96   *    96  x 96   *   
           *       1104   *        1105   *        1106   *        1107   *        
           *              *               *               *               *   
           ****************************************************************
           *              *               *               *               *   
        23 *   96  x 96   *    96  x 96   *    96  x 96   *    96  x 96   *   
           *       1056   *        1057   *        1058   *        1059   *        
           *              *               *               *               *   
           ****************************************************************
           *              *               *               *               *   
        22 *   96  x 96   *    96  x 96   *    96  x 96   *    96  x 96   *   
           *       1008   *        1009   *        1010   *        1011   *        
           *              *               *               *               *   
           ****************************************************************
           *              *               *               *               *   
        21 *   96  x 96   *    96  x 96   *    96  x 96   *    96  x 96   *   
           *        960   *         961   *         962   *         963   *        
           *              *               *               *               *   
           ****************************************************************
           *              *               *               *               *   
        20 *   96  x 96   *    96  x 96   *    96  x 96   *    96  x 96   *   
           *        912   *         913   *         914   *         915   *        
           *              *               *               *               *   
           ****************************************************************
           *              *               *               *               *   
        19 *   96  x 96   *    96  x 96   *    96  x 96   *    96  x 96   *   
           *        864   *         865   *         866   *         867   *        
           *              *               *               *               *   
           ****************************************************************
           *              *               *               *               *   
        18 *   96  x 96   *    96  x 96   *    96  x 96   *    96  x 96   *   
           *        816   *         817   *         818   *         819   *        
           *              *               *               *               *   
           ****************************************************************
           *              *               *               *               *   
        17 *   96  x 96   *    96  x 96   *    96  x 96   *    96  x 96   *   
           *        768   *         769   *         770   *         771   *        
           *              *               *               *               *   
           ****************************************************************
           *              *               *               *               *   
        16 *   96  x 96   *    96  x 96   *    96  x 96   *    96  x 96   *   
           *        720   *         721   *         722   *         723   *        
           *              *               *               *               *   
           ****************************************************************
           *              *               *               *               *   
        15 *   96  x 96   *    96  x 96   *    96  x 96   *    96  x 96   *   
           *        672   *         673   *         674   *         675   *        
           *              *               *               *               *   
           ****************************************************************
           *              *               *               *               *   
        14 *   96  x 96   *    96  x 96   *    96  x 96   *    96  x 96   *   
           *        624   *         625   *         626   *         627   *        
           *              *               *               *               *   
           ****************************************************************
           *              *               *               *               *   
        13 *   96  x 96   *    96  x 96   *    96  x 96   *    96  x 96   *   
           *        576   *         577   *         578   *         579   *        
           *              *               *               *               *   
           ****************************************************************
           *              *               *               *               *   
        12 *   96  x 96   *    96  x 96   *    96  x 96   *    96  x 96   *   
           *        528   *         529   *         530   *         531   *        
           *              *               *               *               *   
           ****************************************************************
           *              *               *               *               *   
        11 *   96  x 96   *    96  x 96   *    96  x 96   *    96  x 96   *   
           *        480   *         481   *         482   *         483   *        
           *              *               *               *               *   
           ****************************************************************
           *              *               *               *               *   
        10 *   96  x 96   *    96  x 96   *    96  x 96   *    96  x 96   *   
           *        432   *         433   *         434   *         435   *        
           *              *               *               *               *   
           ****************************************************************
           *              *               *               *               *   
         9 *   96  x 96   *    96  x 96   *    96  x 96   *    96  x 96   *   
           *        384   *         385   *         386   *         387   *        
           *              *               *               *               *   
           ****************************************************************
           *              *               *               *               *   
         8 *   96  x 96   *    96  x 96   *    96  x 96   *    96  x 96   *   
           *        336   *         337   *         338   *         339   *        
           *              *               *               *               *   
           ****************************************************************
           *              *               *               *               *   
         7 *   96  x 96   *    96  x 96   *    96  x 96   *    96  x 96   *   
           *        288   *         289   *         290   *         291   *        
           *              *               *               *               *   
           ****************************************************************
           *              *               *               *               *   
         6 *   96  x 96   *    96  x 96   *    96  x 96   *    96  x 96   *   
           *        240   *         241   *         242   *         243   *        
           *              *               *               *               *   
           ****************************************************************
           *              *               *               *               *   
         5 *   96  x 96   *    96  x 96   *    96  x 96   *    96  x 96   *   
           *        192   *         193   *         194   *         195   *        
           *              *               *               *               *   
           ****************************************************************
           *              *               *               *               *   
         4 *   96  x 96   *    96  x 96   *    96  x 96   *    96  x 96   *   
           *        144   *         145   *         146   *         147   *        
           *              *               *               *               *   
           ****************************************************************
           *              *               *               *               *   
         3 *   96  x 96   *    96  x 96   *    96  x 96   *    96  x 96   *   
           *         96   *          97   *          98   *          99   *        
           *              *               *               *               *   
           ****************************************************************
           *              *               *               *               *   
         2 *   96  x 96   *    96  x 96   *    96  x 96   *    96  x 96   *   
           *         48   *          49   *          50   *          51   *        
           *              *               *               *               *   
           ****************************************************************
           *              *               *               *               *   
         1 *   96  x 96   *    96  x 96   *    96  x 96   *    96  x 96   *   
           *          0   *           1   *           2   *           3   *        
           *              *               *               *               *   
           ****************************************************************
                   1               2               3               4             

           ****************************************************************
           *              *               *               *               *   
        32 *   96  x 95   *    96  x 95   *    96  x 95   *    96  x 95   *   
           *       1492   *        1493   *        1494   *        1495   *        
           *              *               *               *               *   
           ****************************************************************
           *              *               *               *               *   
        31 *   96  x 95   *    96  x 95   *    96  x 95   *    96  x 95   *   
           *       1444   *        1445   *        1446   *        1447   *        
           *              *               *               *               *   
           ****************************************************************
           *              *               *               *               *   
        30 *   96  x 95   *    96  x 95   *    96  x 95   *    96  x 95   *   
           *       1396   *        1397   *        1398   *        1399   *        
           *              *               *               *               *   
           ****************************************************************
           *              *               *               *               *   
        29 *   96  x 95   *    96  x 95   *    96  x 95   *    96  x 95   *   
           *       1348   *        1349   *        1350   *        1351   *        
           *              *               *               *               *   
           ****************************************************************
           *              *               *               *               *   
        28 *   96  x 95   *    96  x 95   *    96  x 95   *    96  x 95   *   
           *       1300   *        1301   *        1302   *        1303   *        
           *              *               *               *               *   
           ****************************************************************
           *              *               *               *               *   
        27 *   96  x 95   *    96  x 95   *    96  x 95   *    96  x 95   *   
           *       1252   *        1253   *        1254   *        1255   *        
           *              *               *               *               *   
           ****************************************************************
           *              *               *               *               *   
        26 *   96  x 95   *    96  x 95   *    96  x 95   *    96  x 95   *   
           *       1204   *        1205   *        1206   *        1207   *        
           *              *               *               *               *   
           ****************************************************************
           *              *               *               *               *   
        25 *   96  x 95   *    96  x 95   *    96  x 95   *    96  x 95   *   
           *       1156   *        1157   *        1158   *        1159   *        
           *              *               *               *               *   
           ****************************************************************
           *              *               *               *               *   
        24 *   96  x 96   *    96  x 96   *    96  x 96   *    96  x 96   *   
           *       1108   *        1109   *        1110   *        1111   *        
           *              *               *               *               *   
           ****************************************************************
           *              *               *               *               *   
        23 *   96  x 96   *    96  x 96   *    96  x 96   *    96  x 96   *   
           *       1060   *        1061   *        1062   *        1063   *        
           *              *               *               *               *   
           ****************************************************************
           *              *               *               *               *   
        22 *   96  x 96   *    96  x 96   *    96  x 96   *    96  x 96   *   
           *       1012   *        1013   *        1014   *        1015   *        
           *              *               *               *               *   
           ****************************************************************
           *              *               *               *               *   
        21 *   96  x 96   *    96  x 96   *    96  x 96   *    96  x 96   *   
           *        964   *         965   *         966   *         967   *        
           *              *               *               *               *   
           ****************************************************************
           *              *               *               *               *   
        20 *   96  x 96   *    96  x 96   *    96  x 96   *    96  x 96   *   
           *        916   *         917   *         918   *         919   *        
           *              *               *               *               *   
           ****************************************************************
           *              *               *               *               *   
        19 *   96  x 96   *    96  x 96   *    96  x 96   *    96  x 96   *   
           *        868   *         869   *         870   *         871   *        
           *              *               *               *               *   
           ****************************************************************
           *              *               *               *               *   
        18 *   96  x 96   *    96  x 96   *    96  x 96   *    96  x 96   *   
           *        820   *         821   *         822   *         823   *        
           *              *               *               *               *   
           ****************************************************************
           *              *               *               *               *   
        17 *   96  x 96   *    96  x 96   *    96  x 96   *    96  x 96   *   
           *        772   *         773   *         774   *         775   *        
           *              *               *               *               *   
           ****************************************************************
           *              *               *               *               *   
        16 *   96  x 96   *    96  x 96   *    96  x 96   *    96  x 96   *   
           *        724   *         725   *         726   *         727   *        
           *              *               *               *               *   
           ****************************************************************
           *              *               *               *               *   
        15 *   96  x 96   *    96  x 96   *    96  x 96   *    96  x 96   *   
           *        676   *         677   *         678   *         679   *        
           *              *               *               *               *   
           ****************************************************************
           *              *               *               *               *   
        14 *   96  x 96   *    96  x 96   *    96  x 96   *    96  x 96   *   
           *        628   *         629   *         630   *         631   *        
           *              *               *               *               *   
           ****************************************************************
           *              *               *               *               *   
        13 *   96  x 96   *    96  x 96   *    96  x 96   *    96  x 96   *   
           *        580   *         581   *         582   *         583   *        
           *              *               *               *               *   
           ****************************************************************
           *              *               *               *               *   
        12 *   96  x 96   *    96  x 96   *    96  x 96   *    96  x 96   *   
           *        532   *         533   *         534   *         535   *        
           *              *               *               *               *   
           ****************************************************************
           *              *               *               *               *   
        11 *   96  x 96   *    96  x 96   *    96  x 96   *    96  x 96   *   
           *        484   *         485   *         486   *         487   *        
           *              *               *               *               *   
           ****************************************************************
           *              *               *               *               *   
        10 *   96  x 96   *    96  x 96   *    96  x 96   *    96  x 96   *   
           *        436   *         437   *         438   *         439   *        
           *              *               *               *               *   
           ****************************************************************
           *              *               *               *               *   
         9 *   96  x 96   *    96  x 96   *    96  x 96   *    96  x 96   *   
           *        388   *         389   *         390   *         391   *        
           *              *               *               *               *   
           ****************************************************************
           *              *               *               *               *   
         8 *   96  x 96   *    96  x 96   *    96  x 96   *    96  x 96   *   
           *        340   *         341   *         342   *         343   *        
           *              *               *               *               *   
           ****************************************************************
           *              *               *               *               *   
         7 *   96  x 96   *    96  x 96   *    96  x 96   *    96  x 96   *   
           *        292   *         293   *         294   *         295   *        
           *              *               *               *               *   
           ****************************************************************
           *              *               *               *               *   
         6 *   96  x 96   *    96  x 96   *    96  x 96   *    96  x 96   *   
           *        244   *         245   *         246   *         247   *        
           *              *               *               *               *   
           ****************************************************************
           *              *               *               *               *   
         5 *   96  x 96   *    96  x 96   *    96  x 96   *    96  x 96   *   
           *        196   *         197   *         198   *         199   *        
           *              *               *               *               *   
           ****************************************************************
           *              *               *               *               *   
         4 *   96  x 96   *    96  x 96   *    96  x 96   *    96  x 96   *   
           *        148   *         149   *         150   *         151   *        
           *              *               *               *               *   
           ****************************************************************
           *              *               *               *               *   
         3 *   96  x 96   *    96  x 96   *    96  x 96   *    96  x 96   *   
           *        100   *         101   *         102   *         103   *        
           *              *               *               *               *   
           ****************************************************************
           *              *               *               *               *   
         2 *   96  x 96   *    96  x 96   *    96  x 96   *    96  x 96   *   
           *         52   *          53   *          54   *          55   *        
           *              *               *               *               *   
           ****************************************************************
           *              *               *               *               *   
         1 *   96  x 96   *    96  x 96   *    96  x 96   *    96  x 96   *   
           *          4   *           5   *           6   *           7   *        
           *              *               *               *               *   
           ****************************************************************
                   5               6               7               8             

           ****************************************************************
           *              *               *               *               *   
        32 *   96  x 95   *    96  x 95   *    96  x 95   *    96  x 95   *   
           *       1496   *        1497   *        1498   *        1499   *        
           *              *               *               *               *   
           ****************************************************************
           *              *               *               *               *   
        31 *   96  x 95   *    96  x 95   *    96  x 95   *    96  x 95   *   
           *       1448   *        1449   *        1450   *        1451   *        
           *              *               *               *               *   
           ****************************************************************
           *              *               *               *               *   
        30 *   96  x 95   *    96  x 95   *    96  x 95   *    96  x 95   *   
           *       1400   *        1401   *        1402   *        1403   *        
           *              *               *               *               *   
           ****************************************************************
           *              *               *               *               *   
        29 *   96  x 95   *    96  x 95   *    96  x 95   *    96  x 95   *   
           *       1352   *        1353   *        1354   *        1355   *        
           *              *               *               *               *   
           ****************************************************************
           *              *               *               *               *   
        28 *   96  x 95   *    96  x 95   *    96  x 95   *    96  x 95   *   
           *       1304   *        1305   *        1306   *        1307   *        
           *              *               *               *               *   
           ****************************************************************
           *              *               *               *               *   
        27 *   96  x 95   *    96  x 95   *    96  x 95   *    96  x 95   *   
           *       1256   *        1257   *        1258   *        1259   *        
           *              *               *               *               *   
           ****************************************************************
           *              *               *               *               *   
        26 *   96  x 95   *    96  x 95   *    96  x 95   *    96  x 95   *   
           *       1208   *        1209   *        1210   *        1211   *        
           *              *               *               *               *   
           ****************************************************************
           *              *               *               *               *   
        25 *   96  x 95   *    96  x 95   *    96  x 95   *    96  x 95   *   
           *       1160   *        1161   *        1162   *        1163   *        
           *              *               *               *               *   
           ****************************************************************
           *              *               *               *               *   
        24 *   96  x 96   *    96  x 96   *    96  x 96   *    96  x 96   *   
           *       1112   *        1113   *        1114   *        1115   *        
           *              *               *               *               *   
           ****************************************************************
           *              *               *               *               *   
        23 *   96  x 96   *    96  x 96   *    96  x 96   *    96  x 96   *   
           *       1064   *        1065   *        1066   *        1067   *        
           *              *               *               *               *   
           ****************************************************************
           *              *               *               *               *   
        22 *   96  x 96   *    96  x 96   *    96  x 96   *    96  x 96   *   
           *       1016   *        1017   *        1018   *        1019   *        
           *              *               *               *               *   
           ****************************************************************
           *              *               *               *               *   
        21 *   96  x 96   *    96  x 96   *    96  x 96   *    96  x 96   *   
           *        968   *         969   *         970   *         971   *        
           *              *               *               *               *   
           ****************************************************************
           *              *               *               *               *   
        20 *   96  x 96   *    96  x 96   *    96  x 96   *    96  x 96   *   
           *        920   *         921   *         922   *         923   *        
           *              *               *               *               *   
           ****************************************************************
           *              *               *               *               *   
        19 *   96  x 96   *    96  x 96   *    96  x 96   *    96  x 96   *   
           *        872   *         873   *         874   *         875   *        
           *              *               *               *               *   
           ****************************************************************
           *              *               *               *               *   
        18 *   96  x 96   *    96  x 96   *    96  x 96   *    96  x 96   *   
           *        824   *         825   *         826   *         827   *        
           *              *               *               *               *   
           ****************************************************************
           *              *               *               *               *   
        17 *   96  x 96   *    96  x 96   *    96  x 96   *    96  x 96   *   
           *        776   *         777   *         778   *         779   *        
           *              *               *               *               *   
           ****************************************************************
           *              *               *               *               *   
        16 *   96  x 96   *    96  x 96   *    96  x 96   *    96  x 96   *   
           *        728   *         729   *         730   *         731   *        
           *              *               *               *               *   
           ****************************************************************
           *              *               *               *               *   
        15 *   96  x 96   *    96  x 96   *    96  x 96   *    96  x 96   *   
           *        680   *         681   *         682   *         683   *        
           *              *               *               *               *   
           ****************************************************************
           *              *               *               *               *   
        14 *   96  x 96   *    96  x 96   *    96  x 96   *    96  x 96   *   
           *        632   *         633   *         634   *         635   *        
           *              *               *               *               *   
           ****************************************************************
           *              *               *               *               *   
        13 *   96  x 96   *    96  x 96   *    96  x 96   *    96  x 96   *   
           *        584   *         585   *         586   *         587   *        
           *              *               *               *               *   
           ****************************************************************
           *              *               *               *               *   
        12 *   96  x 96   *    96  x 96   *    96  x 96   *    96  x 96   *   
           *        536   *         537   *         538   *         539   *        
           *              *               *               *               *   
           ****************************************************************
           *              *               *               *               *   
        11 *   96  x 96   *    96  x 96   *    96  x 96   *    96  x 96   *   
           *        488   *         489   *         490   *         491   *        
           *              *               *               *               *   
           ****************************************************************
           *              *               *               *               *   
        10 *   96  x 96   *    96  x 96   *    96  x 96   *    96  x 96   *   
           *        440   *         441   *         442   *         443   *        
           *              *               *               *               *   
           ****************************************************************
           *              *               *               *               *   
         9 *   96  x 96   *    96  x 96   *    96  x 96   *    96  x 96   *   
           *        392   *         393   *         394   *         395   *        
           *              *               *               *               *   
           ****************************************************************
           *              *               *               *               *   
         8 *   96  x 96   *    96  x 96   *    96  x 96   *    96  x 96   *   
           *        344   *         345   *         346   *         347   *        
           *              *               *               *               *   
           ****************************************************************
           *              *               *               *               *   
         7 *   96  x 96   *    96  x 96   *    96  x 96   *    96  x 96   *   
           *        296   *         297   *         298   *         299   *        
           *              *               *               *               *   
           ****************************************************************
           *              *               *               *               *   
         6 *   96  x 96   *    96  x 96   *    96  x 96   *    96  x 96   *   
           *        248   *         249   *         250   *         251   *        
           *              *               *               *               *   
           ****************************************************************
           *              *               *               *               *   
         5 *   96  x 96   *    96  x 96   *    96  x 96   *    96  x 96   *   
           *        200   *         201   *         202   *         203   *        
           *              *               *               *               *   
           ****************************************************************
           *              *               *               *               *   
         4 *   96  x 96   *    96  x 96   *    96  x 96   *    96  x 96   *   
           *        152   *         153   *         154   *         155   *        
           *              *               *               *               *   
           ****************************************************************
           *              *               *               *               *   
         3 *   96  x 96   *    96  x 96   *    96  x 96   *    96  x 96   *   
           *        104   *         105   *         106   *         107   *        
           *              *               *               *               *   
           ****************************************************************
           *              *               *               *               *   
         2 *   96  x 96   *    96  x 96   *    96  x 96   *    96  x 96   *   
           *         56   *          57   *          58   *          59   *        
           *              *               *               *               *   
           ****************************************************************
           *              *               *               *               *   
         1 *   96  x 96   *    96  x 96   *    96  x 96   *    96  x 96   *   
           *          8   *           9   *          10   *          11   *        
           *              *               *               *               *   
           ****************************************************************
                   9              10              11              12             

           ****************************************************************
           *              *               *               *               *   
        32 *   96  x 95   *    96  x 95   *    96  x 95   *    96  x 95   *   
           *       1500   *        1501   *        1502   *        1503   *        
           *              *               *               *               *   
           ****************************************************************
           *              *               *               *               *   
        31 *   96  x 95   *    96  x 95   *    96  x 95   *    96  x 95   *   
           *       1452   *        1453   *        1454   *        1455   *        
           *              *               *               *               *   
           ****************************************************************
           *              *               *               *               *   
        30 *   96  x 95   *    96  x 95   *    96  x 95   *    96  x 95   *   
           *       1404   *        1405   *        1406   *        1407   *        
           *              *               *               *               *   
           ****************************************************************
           *              *               *               *               *   
        29 *   96  x 95   *    96  x 95   *    96  x 95   *    96  x 95   *   
           *       1356   *        1357   *        1358   *        1359   *        
           *              *               *               *               *   
           ****************************************************************
           *              *               *               *               *   
        28 *   96  x 95   *    96  x 95   *    96  x 95   *    96  x 95   *   
           *       1308   *        1309   *        1310   *        1311   *        
           *              *               *               *               *   
           ****************************************************************
           *              *               *               *               *   
        27 *   96  x 95   *    96  x 95   *    96  x 95   *    96  x 95   *   
           *       1260   *        1261   *        1262   *        1263   *        
           *              *               *               *               *   
           ****************************************************************
           *              *               *               *               *   
        26 *   96  x 95   *    96  x 95   *    96  x 95   *    96  x 95   *   
           *       1212   *        1213   *        1214   *        1215   *        
           *              *               *               *               *   
           ****************************************************************
           *              *               *               *               *   
        25 *   96  x 95   *    96  x 95   *    96  x 95   *    96  x 95   *   
           *       1164   *        1165   *        1166   *        1167   *        
           *              *               *               *               *   
           ****************************************************************
           *              *               *               *               *   
        24 *   96  x 96   *    96  x 96   *    96  x 96   *    96  x 96   *   
           *       1116   *        1117   *        1118   *        1119   *        
           *              *               *               *               *   
           ****************************************************************
           *              *               *               *               *   
        23 *   96  x 96   *    96  x 96   *    96  x 96   *    96  x 96   *   
           *       1068   *        1069   *        1070   *        1071   *        
           *              *               *               *               *   
           ****************************************************************
           *              *               *               *               *   
        22 *   96  x 96   *    96  x 96   *    96  x 96   *    96  x 96   *   
           *       1020   *        1021   *        1022   *        1023   *        
           *              *               *               *               *   
           ****************************************************************
           *              *               *               *               *   
        21 *   96  x 96   *    96  x 96   *    96  x 96   *    96  x 96   *   
           *        972   *         973   *         974   *         975   *        
           *              *               *               *               *   
           ****************************************************************
           *              *               *               *               *   
        20 *   96  x 96   *    96  x 96   *    96  x 96   *    96  x 96   *   
           *        924   *         925   *         926   *         927   *        
           *              *               *               *               *   
           ****************************************************************
           *              *               *               *               *   
        19 *   96  x 96   *    96  x 96   *    96  x 96   *    96  x 96   *   
           *        876   *         877   *         878   *         879   *        
           *              *               *               *               *   
           ****************************************************************
           *              *               *               *               *   
        18 *   96  x 96   *    96  x 96   *    96  x 96   *    96  x 96   *   
           *        828   *         829   *         830   *         831   *        
           *              *               *               *               *   
           ****************************************************************
           *              *               *               *               *   
        17 *   96  x 96   *    96  x 96   *    96  x 96   *    96  x 96   *   
           *        780   *         781   *         782   *         783   *        
           *              *               *               *               *   
           ****************************************************************
           *              *               *               *               *   
        16 *   96  x 96   *    96  x 96   *    96  x 96   *    96  x 96   *   
           *        732   *         733   *         734   *         735   *        
           *              *               *               *               *   
           ****************************************************************
           *              *               *               *               *   
        15 *   96  x 96   *    96  x 96   *    96  x 96   *    96  x 96   *   
           *        684   *         685   *         686   *         687   *        
           *              *               *               *               *   
           ****************************************************************
           *              *               *               *               *   
        14 *   96  x 96   *    96  x 96   *    96  x 96   *    96  x 96   *   
           *        636   *         637   *         638   *         639   *        
           *              *               *               *               *   
           ****************************************************************
           *              *               *               *               *   
        13 *   96  x 96   *    96  x 96   *    96  x 96   *    96  x 96   *   
           *        588   *         589   *         590   *         591   *        
           *              *               *               *               *   
           ****************************************************************
           *              *               *               *               *   
        12 *   96  x 96   *    96  x 96   *    96  x 96   *    96  x 96   *   
           *        540   *         541   *         542   *         543   *        
           *              *               *               *               *   
           ****************************************************************
           *              *               *               *               *   
        11 *   96  x 96   *    96  x 96   *    96  x 96   *    96  x 96   *   
           *        492   *         493   *         494   *         495   *        
           *              *               *               *               *   
           ****************************************************************
           *              *               *               *               *   
        10 *   96  x 96   *    96  x 96   *    96  x 96   *    96  x 96   *   
           *        444   *         445   *         446   *         447   *        
           *              *               *               *               *   
           ****************************************************************
           *              *               *               *               *   
         9 *   96  x 96   *    96  x 96   *    96  x 96   *    96  x 96   *   
           *        396   *         397   *         398   *         399   *        
           *              *               *               *               *   
           ****************************************************************
           *              *               *               *               *   
         8 *   96  x 96   *    96  x 96   *    96  x 96   *    96  x 96   *   
           *        348   *         349   *         350   *         351   *        
           *              *               *               *               *   
           ****************************************************************
           *              *               *               *               *   
         7 *   96  x 96   *    96  x 96   *    96  x 96   *    96  x 96   *   
           *        300   *         301   *         302   *         303   *        
           *              *               *               *               *   
           ****************************************************************
           *              *               *               *               *   
         6 *   96  x 96   *    96  x 96   *    96  x 96   *    96  x 96   *   
           *        252   *         253   *         254   *         255   *        
           *              *               *               *               *   
           ****************************************************************
           *              *               *               *               *   
         5 *   96  x 96   *    96  x 96   *    96  x 96   *    96  x 96   *   
           *        204   *         205   *         206   *         207   *        
           *              *               *               *               *   
           ****************************************************************
           *              *               *               *               *   
         4 *   96  x 96   *    96  x 96   *    96  x 96   *    96  x 96   *   
           *        156   *         157   *         158   *         159   *        
           *              *               *               *               *   
           ****************************************************************
           *              *               *               *               *   
         3 *   96  x 96   *    96  x 96   *    96  x 96   *    96  x 96   *   
           *        108   *         109   *         110   *         111   *        
           *              *               *               *               *   
           ****************************************************************
           *              *               *               *               *   
         2 *   96  x 96   *    96  x 96   *    96  x 96   *    96  x 96   *   
           *         60   *          61   *          62   *          63   *        
           *              *               *               *               *   
           ****************************************************************
           *              *               *               *               *   
         1 *   96  x 96   *    96  x 96   *    96  x 96   *    96  x 96   *   
           *         12   *          13   *          14   *          15   *        
           *              *               *               *               *   
           ****************************************************************
                  13              14              15              16             

           ****************************************************************
           *              *               *               *               *   
        32 *   96  x 95   *    96  x 95   *    96  x 95   *    96  x 95   *   
           *       1504   *        1505   *        1506   *        1507   *        
           *              *               *               *               *   
           ****************************************************************
           *              *               *               *               *   
        31 *   96  x 95   *    96  x 95   *    96  x 95   *    96  x 95   *   
           *       1456   *        1457   *        1458   *        1459   *        
           *              *               *               *               *   
           ****************************************************************
           *              *               *               *               *   
        30 *   96  x 95   *    96  x 95   *    96  x 95   *    96  x 95   *   
           *       1408   *        1409   *        1410   *        1411   *        
           *              *               *               *               *   
           ****************************************************************
           *              *               *               *               *   
        29 *   96  x 95   *    96  x 95   *    96  x 95   *    96  x 95   *   
           *       1360   *        1361   *        1362   *        1363   *        
           *              *               *               *               *   
           ****************************************************************
           *              *               *               *               *   
        28 *   96  x 95   *    96  x 95   *    96  x 95   *    96  x 95   *   
           *       1312   *        1313   *        1314   *        1315   *        
           *              *               *               *               *   
           ****************************************************************
           *              *               *               *               *   
        27 *   96  x 95   *    96  x 95   *    96  x 95   *    96  x 95   *   
           *       1264   *        1265   *        1266   *        1267   *        
           *              *               *               *               *   
           ****************************************************************
           *              *               *               *               *   
        26 *   96  x 95   *    96  x 95   *    96  x 95   *    96  x 95   *   
           *       1216   *        1217   *        1218   *        1219   *        
           *              *               *               *               *   
           ****************************************************************
           *              *               *               *               *   
        25 *   96  x 95   *    96  x 95   *    96  x 95   *    96  x 95   *   
           *       1168   *        1169   *        1170   *        1171   *        
           *              *               *               *               *   
           ****************************************************************
           *              *               *               *               *   
        24 *   96  x 96   *    96  x 96   *    96  x 96   *    96  x 96   *   
           *       1120   *        1121   *        1122   *        1123   *        
           *              *               *               *               *   
           ****************************************************************
           *              *               *               *               *   
        23 *   96  x 96   *    96  x 96   *    96  x 96   *    96  x 96   *   
           *       1072   *        1073   *        1074   *        1075   *        
           *              *               *               *               *   
           ****************************************************************
           *              *               *               *               *   
        22 *   96  x 96   *    96  x 96   *    96  x 96   *    96  x 96   *   
           *       1024   *        1025   *        1026   *        1027   *        
           *              *               *               *               *   
           ****************************************************************
           *              *               *               *               *   
        21 *   96  x 96   *    96  x 96   *    96  x 96   *    96  x 96   *   
           *        976   *         977   *         978   *         979   *        
           *              *               *               *               *   
           ****************************************************************
           *              *               *               *               *   
        20 *   96  x 96   *    96  x 96   *    96  x 96   *    96  x 96   *   
           *        928   *         929   *         930   *         931   *        
           *              *               *               *               *   
           ****************************************************************
           *              *               *               *               *   
        19 *   96  x 96   *    96  x 96   *    96  x 96   *    96  x 96   *   
           *        880   *         881   *         882   *         883   *        
           *              *               *               *               *   
           ****************************************************************
           *              *               *               *               *   
        18 *   96  x 96   *    96  x 96   *    96  x 96   *    96  x 96   *   
           *        832   *         833   *         834   *         835   *        
           *              *               *               *               *   
           ****************************************************************
           *              *               *               *               *   
        17 *   96  x 96   *    96  x 96   *    96  x 96   *    96  x 96   *   
           *        784   *         785   *         786   *         787   *        
           *              *               *               *               *   
           ****************************************************************
           *              *               *               *               *   
        16 *   96  x 96   *    96  x 96   *    96  x 96   *    96  x 96   *   
           *        736   *         737   *         738   *         739   *        
           *              *               *               *               *   
           ****************************************************************
           *              *               *               *               *   
        15 *   96  x 96   *    96  x 96   *    96  x 96   *    96  x 96   *   
           *        688   *         689   *         690   *         691   *        
           *              *               *               *               *   
           ****************************************************************
           *              *               *               *               *   
        14 *   96  x 96   *    96  x 96   *    96  x 96   *    96  x 96   *   
           *        640   *         641   *         642   *         643   *        
           *              *               *               *               *   
           ****************************************************************
           *              *               *               *               *   
        13 *   96  x 96   *    96  x 96   *    96  x 96   *    96  x 96   *   
           *        592   *         593   *         594   *         595   *        
           *              *               *               *               *   
           ****************************************************************
           *              *               *               *               *   
        12 *   96  x 96   *    96  x 96   *    96  x 96   *    96  x 96   *   
           *        544   *         545   *         546   *         547   *        
           *              *               *               *               *   
           ****************************************************************
           *              *               *               *               *   
        11 *   96  x 96   *    96  x 96   *    96  x 96   *    96  x 96   *   
           *        496   *         497   *         498   *         499   *        
           *              *               *               *               *   
           ****************************************************************
           *              *               *               *               *   
        10 *   96  x 96   *    96  x 96   *    96  x 96   *    96  x 96   *   
           *        448   *         449   *         450   *         451   *        
           *              *               *               *               *   
           ****************************************************************
           *              *               *               *               *   
         9 *   96  x 96   *    96  x 96   *    96  x 96   *    96  x 96   *   
           *        400   *         401   *         402   *         403   *        
           *              *               *               *               *   
           ****************************************************************
           *              *               *               *               *   
         8 *   96  x 96   *    96  x 96   *    96  x 96   *    96  x 96   *   
           *        352   *         353   *         354   *         355   *        
           *              *               *               *               *   
           ****************************************************************
           *              *               *               *               *   
         7 *   96  x 96   *    96  x 96   *    96  x 96   *    96  x 96   *   
           *        304   *         305   *         306   *         307   *        
           *              *               *               *               *   
           ****************************************************************
           *              *               *               *               *   
         6 *   96  x 96   *    96  x 96   *    96  x 96   *    96  x 96   *   
           *        256   *         257   *         258   *         259   *        
           *              *               *               *               *   
           ****************************************************************
           *              *               *               *               *   
         5 *   96  x 96   *    96  x 96   *    96  x 96   *    96  x 96   *   
           *        208   *         209   *         210   *         211   *        
           *              *               *               *               *   
           ****************************************************************
           *              *               *               *               *   
         4 *   96  x 96   *    96  x 96   *    96  x 96   *    96  x 96   *   
           *        160   *         161   *         162   *         163   *        
           *              *               *               *               *   
           ****************************************************************
           *              *               *               *               *   
         3 *   96  x 96   *    96  x 96   *    96  x 96   *    96  x 96   *   
           *        112   *         113   *         114   *         115   *        
           *              *               *               *               *   
           ****************************************************************
           *              *               *               *               *   
         2 *   96  x 96   *    96  x 96   *    96  x 96   *    96  x 96   *   
           *         64   *          65   *          66   *          67   *        
           *              *               *               *               *   
           ****************************************************************
           *              *               *               *               *   
         1 *   96  x 96   *    96  x 96   *    96  x 96   *    96  x 96   *   
           *         16   *          17   *          18   *          19   *        
           *              *               *               *               *   
           ****************************************************************
                  17              18              19              20             

           ****************************************************************
           *              *               *               *               *   
        32 *   96  x 95   *    96  x 95   *    96  x 95   *    96  x 95   *   
           *       1508   *        1509   *        1510   *        1511   *        
           *              *               *               *               *   
           ****************************************************************
           *              *               *               *               *   
        31 *   96  x 95   *    96  x 95   *    96  x 95   *    96  x 95   *   
           *       1460   *        1461   *        1462   *        1463   *        
           *              *               *               *               *   
           ****************************************************************
           *              *               *               *               *   
        30 *   96  x 95   *    96  x 95   *    96  x 95   *    96  x 95   *   
           *       1412   *        1413   *        1414   *        1415   *        
           *              *               *               *               *   
           ****************************************************************
           *              *               *               *               *   
        29 *   96  x 95   *    96  x 95   *    96  x 95   *    96  x 95   *   
           *       1364   *        1365   *        1366   *        1367   *        
           *              *               *               *               *   
           ****************************************************************
           *              *               *               *               *   
        28 *   96  x 95   *    96  x 95   *    96  x 95   *    96  x 95   *   
           *       1316   *        1317   *        1318   *        1319   *        
           *              *               *               *               *   
           ****************************************************************
           *              *               *               *               *   
        27 *   96  x 95   *    96  x 95   *    96  x 95   *    96  x 95   *   
           *       1268   *        1269   *        1270   *        1271   *        
           *              *               *               *               *   
           ****************************************************************
           *              *               *               *               *   
        26 *   96  x 95   *    96  x 95   *    96  x 95   *    96  x 95   *   
           *       1220   *        1221   *        1222   *        1223   *        
           *              *               *               *               *   
           ****************************************************************
           *              *               *               *               *   
        25 *   96  x 95   *    96  x 95   *    96  x 95   *    96  x 95   *   
           *       1172   *        1173   *        1174   *        1175   *        
           *              *               *               *               *   
           ****************************************************************
           *              *               *               *               *   
        24 *   96  x 96   *    96  x 96   *    96  x 96   *    96  x 96   *   
           *       1124   *        1125   *        1126   *        1127   *        
           *              *               *               *               *   
           ****************************************************************
           *              *               *               *               *   
        23 *   96  x 96   *    96  x 96   *    96  x 96   *    96  x 96   *   
           *       1076   *        1077   *        1078   *        1079   *        
           *              *               *               *               *   
           ****************************************************************
           *              *               *               *               *   
        22 *   96  x 96   *    96  x 96   *    96  x 96   *    96  x 96   *   
           *       1028   *        1029   *        1030   *        1031   *        
           *              *               *               *               *   
           ****************************************************************
           *              *               *               *               *   
        21 *   96  x 96   *    96  x 96   *    96  x 96   *    96  x 96   *   
           *        980   *         981   *         982   *         983   *        
           *              *               *               *               *   
           ****************************************************************
           *              *               *               *               *   
        20 *   96  x 96   *    96  x 96   *    96  x 96   *    96  x 96   *   
           *        932   *         933   *         934   *         935   *        
           *              *               *               *               *   
           ****************************************************************
           *              *               *               *               *   
        19 *   96  x 96   *    96  x 96   *    96  x 96   *    96  x 96   *   
           *        884   *         885   *         886   *         887   *        
           *              *               *               *               *   
           ****************************************************************
           *              *               *               *               *   
        18 *   96  x 96   *    96  x 96   *    96  x 96   *    96  x 96   *   
           *        836   *         837   *         838   *         839   *        
           *              *               *               *               *   
           ****************************************************************
           *              *               *               *               *   
        17 *   96  x 96   *    96  x 96   *    96  x 96   *    96  x 96   *   
           *        788   *         789   *         790   *         791   *        
           *              *               *               *               *   
           ****************************************************************
           *              *               *               *               *   
        16 *   96  x 96   *    96  x 96   *    96  x 96   *    96  x 96   *   
           *        740   *         741   *         742   *         743   *        
           *              *               *               *               *   
           ****************************************************************
           *              *               *               *               *   
        15 *   96  x 96   *    96  x 96   *    96  x 96   *    96  x 96   *   
           *        692   *         693   *         694   *         695   *        
           *              *               *               *               *   
           ****************************************************************
           *              *               *               *               *   
        14 *   96  x 96   *    96  x 96   *    96  x 96   *    96  x 96   *   
           *        644   *         645   *         646   *         647   *        
           *              *               *               *               *   
           ****************************************************************
           *              *               *               *               *   
        13 *   96  x 96   *    96  x 96   *    96  x 96   *    96  x 96   *   
           *        596   *         597   *         598   *         599   *        
           *              *               *               *               *   
           ****************************************************************
           *              *               *               *               *   
        12 *   96  x 96   *    96  x 96   *    96  x 96   *    96  x 96   *   
           *        548   *         549   *         550   *         551   *        
           *              *               *               *               *   
           ****************************************************************
           *              *               *               *               *   
        11 *   96  x 96   *    96  x 96   *    96  x 96   *    96  x 96   *   
           *        500   *         501   *         502   *         503   *        
           *              *               *               *               *   
           ****************************************************************
           *              *               *               *               *   
        10 *   96  x 96   *    96  x 96   *    96  x 96   *    96  x 96   *   
           *        452   *         453   *         454   *         455   *        
           *              *               *               *               *   
           ****************************************************************
           *              *               *               *               *   
         9 *   96  x 96   *    96  x 96   *    96  x 96   *    96  x 96   *   
           *        404   *         405   *         406   *         407   *        
           *              *               *               *               *   
           ****************************************************************
           *              *               *               *               *   
         8 *   96  x 96   *    96  x 96   *    96  x 96   *    96  x 96   *   
           *        356   *         357   *         358   *         359   *        
           *              *               *               *               *   
           ****************************************************************
           *              *               *               *               *   
         7 *   96  x 96   *    96  x 96   *    96  x 96   *    96  x 96   *   
           *        308   *         309   *         310   *         311   *        
           *              *               *               *               *   
           ****************************************************************
           *              *               *               *               *   
         6 *   96  x 96   *    96  x 96   *    96  x 96   *    96  x 96   *   
           *        260   *         261   *         262   *         263   *        
           *              *               *               *               *   
           ****************************************************************
           *              *               *               *               *   
         5 *   96  x 96   *    96  x 96   *    96  x 96   *    96  x 96   *   
           *        212   *         213   *         214   *         215   *        
           *              *               *               *               *   
           ****************************************************************
           *              *               *               *               *   
         4 *   96  x 96   *    96  x 96   *    96  x 96   *    96  x 96   *   
           *        164   *         165   *         166   *         167   *        
           *              *               *               *               *   
           ****************************************************************
           *              *               *               *               *   
         3 *   96  x 96   *    96  x 96   *    96  x 96   *    96  x 96   *   
           *        116   *         117   *         118   *         119   *        
           *              *               *               *               *   
           ****************************************************************
           *              *               *               *               *   
         2 *   96  x 96   *    96  x 96   *    96  x 96   *    96  x 96   *   
           *         68   *          69   *          70   *          71   *        
           *              *               *               *               *   
           ****************************************************************
           *              *               *               *               *   
         1 *   96  x 96   *    96  x 96   *    96  x 96   *    96  x 96   *   
           *         20   *          21   *          22   *          23   *        
           *              *               *               *               *   
           ****************************************************************
                  21              22              23              24             

           ****************************************************************
           *              *               *               *               *   
        32 *   96  x 95   *    96  x 95   *    96  x 95   *    96  x 95   *   
           *       1512   *        1513   *        1514   *        1515   *        
           *              *               *               *               *   
           ****************************************************************
           *              *               *               *               *   
        31 *   96  x 95   *    96  x 95   *    96  x 95   *    96  x 95   *   
           *       1464   *        1465   *        1466   *        1467   *        
           *              *               *               *               *   
[...]
    with    a drag coefficient Cd0 =    1.0000000000000000E-003 , and
            a background velocity module of (rn_ke0)^1/2 =    5.0000000000000003E-002 m/s)

 ldf_tra_init : lateral tracer diffusion
 ~~~~~~~~~~~~ 
    Namelist : namtra_ldf --- lateral mixing parameters (type, direction, coefficients)
       type :
          no explicit diffusion                   ln_traldf_OFF   =  F
          laplacian operator                      ln_traldf_lap   =  T
          bilaplacian operator                    ln_traldf_blp   =  F
       direction of action :
          iso-level                               ln_traldf_lev   =  F
          horizontal (geopotential)               ln_traldf_hor   =  F
          iso-neutral Madec operator              ln_traldf_iso   =  T
          iso-neutral triad operator              ln_traldf_triad =  F
             use the Method of Stab. Correction   ln_traldf_msc   =  F
             maximum isoppycnal slope             rn_slpmax       =    1.0000000000000000E-002
             pure lateral mixing in ML            ln_triad_iso    =  F
             switching triad or not               rn_sw_triad     =    1.0000000000000000     
             lateral mixing on bottom             ln_botmix_triad =  F
       coefficients :
          type of time-space variation            nn_aht_ijk_t    =            0
             lateral diffusive velocity (if cst)  rn_Ud           =    2.0000000000000000E-002  m/s
             lateral diffusive length   (if cst)  rn_Ld           =    100000.00000000000       m

    ==>>>   Rotated laplacian operator (standard)

    ==>>>   eddy diffusivity = constant =    1000.0000000000000       m2/s

 ldf_eiv_init : eddy induced velocity parametrization
 ~~~~~~~~~~~~ 
    Namelist namtra_eiv : 
       Eddy Induced Velocity (eiv) param.         ln_ldfeiv     =  F
       eiv streamfunction & velocity diag.        ln_ldfeiv_dia =  F
       coefficients :
          type of time-space variation            nn_aei_ijk_t  =            0
          lateral diffusive velocity (if cst)     rn_Ue         =    2.0000000000000000E-002  m/s
          lateral diffusive length   (if cst)     rn_Le         =    200000.00000000000       m

    ==>>>   eddy induced velocity param is NOT used

 ldf_dyn : lateral momentum physics
 ~~~~~~~
    Namelist namdyn_ldf : set lateral mixing parameters
       type :
          no explicit diffusion                ln_dynldf_OFF =  F
          laplacian operator                   ln_dynldf_lap =  T
          bilaplacian operator                 ln_dynldf_blp =  F
       direction of action :
          iso-level                            ln_dynldf_lev =  T
          horizontal (geopotential)            ln_dynldf_hor =  F
          iso-neutral                          ln_dynldf_iso =  F
       coefficients :
          type of time-space variation         nn_ahm_ijk_t  =            0
          lateral viscous velocity  (if cst)      rn_Uv      =    2.0000000000000000       m/s
          lateral viscous length    (if cst)      rn_Lv      =    100000.00000000000       m
          background viscosity (iso-lap case)     rn_ahm_b   =    0.0000000000000000       m2/s
       Smagorinsky settings (nn_ahm_ijk_t  = 32) :
          Smagorinsky coefficient              rn_csmc       =    3.5000000000000000     
          factor multiplier for eddy visc.
             lower limit (default 1.0)         rn_minfac    =    1.0000000000000000     
             upper limit (default 1.0)         rn_maxfac    =    1.0000000000000000     

    ==>>>   iso-level laplacian operator

    ==>>>   eddy viscosity. = constant =    100000.00000000000       m2/s

 tra_qsr_init : penetration of the surface solar radiation
 ~~~~~~~~~~~~
    Namelist namtra_qsr : set the parameter of penetration
       RGB (Red-Green-Blue) light penetration       ln_qsr_rgb =  F
       2 band               light penetration       ln_qsr_2bd =  T
       bio-model            light penetration       ln_qsr_bio =  F
       RGB : Chl data (=1) or cst value (=0)        nn_chldta  =            0
       RGB & 2 bands: fraction of light (rn_si1)    rn_abs     =   0.57999999999999996     
       RGB & 2 bands: shortess depth of extinction  rn_si0     =   0.34999999999999998     
       2 bands: longest depth of extinction         rn_si1     =    23.000000000000000     

    ==>>>   2 bands light penetration
         level of light extinction =           18  ref depth =    969.84377441468257       m

 tra_bbc : Bottom Boundary Condition (bbc), apply a Geothermal heating
 ~~~~~~~   
    Namelist nambbc : set bbc parameters
       Apply a geothermal heating at ocean bottom   ln_trabbc     =  F
       type of geothermal flux                      nn_geoflx     =            2
       Constant geothermal flux value               rn_geoflx_cst =    8.6400000000000005E-002

    ==>>>   no geothermal heat flux

 tra_bbl_init : bottom boundary layer initialisation
 ~~~~~~~~~~~~
        Namelist nambbl : set bbl parameters
           bottom boundary layer flag          ln_trabbl  =  F

 tra_dmp_init : T and S newtonian relaxation
 ~~~~~~~~~~~~
    Namelist namtra_dmp : set relaxation parameters
       Apply relaxation   or not       ln_tradmp   =  F
          mixed layer damping option      nn_zdmp  =            0
          Damping file name               cn_resto = resto.nc                                                                                                                                                                                                


 tra_adv_init : choice/control of the tracer advection scheme
 ~~~~~~~~~~~~
    Namelist namtra_adv : chose a advection scheme for tracers
       No advection on T & S                     ln_traadv_OFF =  F
       centered scheme                           ln_traadv_cen =  F
             horizontal 2nd/4th order               nn_cen_h   =            2
             vertical   2nd/4th order               nn_cen_v   =            2
       Flux Corrected Transport scheme           ln_traadv_fct =  T
             horizontal 2nd/4th order               nn_fct_h   =            2
             vertical   2nd/4th order               nn_fct_v   =            2
       MUSCL scheme                              ln_traadv_mus =  F
             + upstream scheme near river mouths    ln_mus_ups =  F
       UBS scheme                                ln_traadv_ubs =  F
             vertical   2nd/4th order               nn_ubs_v   =            2
       QUICKEST scheme                           ln_traadv_qck =  F

    ==>>>   FCT      scheme is used. Horizontal order:            2  Vertical   order:            2

 tra_mle_init : mixed layer eddy (MLE) advection acting on tracers
 ~~~~~~~~~~~~~
    Namelist namtra_mle : mixed layer eddy advection applied on tracers
       use mixed layer eddy (MLE, i.e. Fox-Kemper param) (T/F)      ln_mle       =  F
          MLE type: =0 standard Fox-Kemper ; =1 new formulation        nn_mle    =            1
          magnitude of the MLE (typical value: 0.06 to 0.08)           rn_ce     =    5.9999999999999998E-002
          scale of ML front (ML radius of deformation) (rn_mle=0)      rn_lf     =    5000.0000000000000      m
          maximum time scale of MLE                    (rn_mle=0)      rn_time   =    172800.00000000000      s
          reference latitude (degrees) of MLE coef.    (rn_mle=1)      rn_lat    =    20.000000000000000      deg
          space interp. of MLD at u-(v-)pts (0=min,1=averaged,2=max)   nn_mld_uv =            0
          =1 no MLE in case of convection ; =0 always MLE              nn_conv   =            0
          Density difference used to define ML for FK              rn_rho_c_mle  =    1.0000000000000000E-002

    ==>>>   Mixed Layer Eddy parametrisation NOT used

 tra_ldf_init : lateral tracer diffusive operator
 ~~~~~~~~~~~~
    Namelist namtra_ldf: already read in ldftra module
       see ldf_tra_init report for lateral mixing parameters

    ==>>>   Rotated laplacian operator (standard)

 dyn_adv_init : choice/control of the momentum advection scheme
 ~~~~~~~~~~~~
    Namelist namdyn_adv : chose a advection formulation & scheme for momentum
       linear dynamics : no momentum advection          ln_dynadv_OFF  =  F
       Vector form: 2nd order centered scheme           ln_dynadv_vec  =  T
          with Hollingsworth scheme (=1) or not (=0)       nn_dynkeg   =            0
       flux form: 2nd order centred scheme              ln_dynadv_cen2 =  F
                  3rd order UBS scheme                  ln_dynadv_ubs  =  F

    ==>>>   vector form : keg + zad + vor is used
               with Centered standard keg scheme

 dyn_vor_init : vorticity term : read namelist and control the consistency
 ~~~~~~~~~~~~
    Namelist namdyn_vor : choice of the vorticity term scheme
       enstrophy conserving scheme                    ln_dynvor_ens =  F
       f-point energy conserving scheme               ln_dynvor_ene =  T
       t-point energy conserving scheme               ln_dynvor_enT =  F
       energy conserving scheme  (een using e3t)      ln_dynvor_eeT =  F
       enstrophy and energy conserving scheme         ln_dynvor_een =  F
          e3f = averaging /4 (=0) or /sum(tmask) (=1)    nn_een_e3f =            0
       mixed enstrophy/energy conserving scheme       ln_dynvor_mix =  F
       masked (=T) or unmasked(=F) vorticity          ln_dynvor_msk =  F

       change fmask value in the angles (T)           ln_vorlat =  F

    ==>>>   vector form dynamics : total vorticity = Coriolis + relative vorticity

    ==>>>   energy conserving scheme (Coriolis at F-points) (ENE)

 dyn_ldf_init : Choice of the lateral diffusive operator on dynamics
 ~~~~~~~~~~~~
    Namelist namdyn_ldf: already read in ldfdyn module
       see ldf_dyn_init report for lateral mixing parameters

    ==>>>   iso-level laplacian operator

 dyn_hpg_init : hydrostatic pressure gradient initialisation
 ~~~~~~~~~~~~
    Namelist namdyn_hpg : choice of hpg scheme
       z-coord. - full steps                             ln_hpg_zco    =  T
       z-coord. - partial steps (interpolation)          ln_hpg_zps    =  F
       s-coord. (standard jacobian formulation)          ln_hpg_sco    =  F
       s-coord. (standard jacobian formulation) for isf  ln_hpg_isf    =  F
       s-coord. (Density Jacobian: Cubic polynomial)     ln_hpg_djc    =  F
       s-coord. (Pressure Jacobian: Cubic polynomial)    ln_hpg_prj    =  F

    ==>>>   z-coord. - full steps 


 dyn_spg_init : choice of the surface pressure gradient scheme
 ~~~~~~~~~~~~
    Namelist : namdyn_spg                    
       Explicit free surface                  ln_dynspg_exp =  F
       Free surface with time splitting       ln_dynspg_ts  =  T

    ==>>>   free surface with time splitting scheme

 dyn_spg_ts_init : split-explicit free surface
 ~~~~~~~~~~~~~~~
      ln_ts_auto =.true. Automatically set nn_baro 
      Max. courant number allowed:   0.80000000000000004     
      ln_bt_av =.true.  ==> Time averaging over nn_baro time steps is on 
      ln_bt_fw=.true.  => Forward integration of barotropic variables 
      Time filter choice, nn_bt_flt:            1
            Boxcar: width = nn_baro
  
      nn_baro =            5
      Barotropic time step [s] is :   240.00000000000000     
      Maximum Courant number is   :  0.65758332572732325     
      Time diffusion parameter rn_bt_alpha:    0.0000000000000000     

    ==>>>   start from rest: set barotropic values to 0

 ldf_slp_init : direction of lateral mixing
 ~~~~~~~~~~~~
    ==>>>   iso operator (Madec)

 icb_nam : iceberg initialization through namberg namelist read
 ~~~~~~~~ 

    ==>>>   No icebergs used

 sto_par_init : NO use of stochastic parameterization
 ~~~~~~~~~~~~

 flo_stp : call floats routine 
 ~~~~~~~

          Namelist floats :
             Activate floats or not                   ln_floats    =  F
                number of floats                      jpnfl        =            1
                number of new floats                  jpnflnewflo  =            0
                restart                               ln_rstflo    =  F
                frequency of float output file        nn_writefl   =           75
                frequency of float restart file       nn_stockfl   =         5475
                Argo type floats                      ln_argo      =  F
                Computation of T trajectories         ln_flork4    =  F
                Use of ariane convention              ln_ariane    =  T
                ascii output (T) or netcdf output (F) ln_flo_ascii =  T

  ===>>> : W A R N I N G

          ===============

 end of record or file while reading namelist namptr in configuration namelist iostat =    -1


 dia_ptr_init : poleward transport and msf initialization
 ~~~~~~~~~~~~
    Namelist namptr : set ptr parameters
       Poleward heat & salt transport (T) or not (F)      ln_diaptr  =  F
  
 diadct_init: compute transports through sections 
 ~~~~~~~~~~~~~~~~~~~~~
        Calculate transport thru sections: ln_diadct =  F
        Frequency of computation:          nn_dct    =           15
        Frequency of write:                nn_dctwri =           15
        Debug section number:          112

 dia_hsb_init : heat and salt budgets diagnostics
 ~~~~~~~~~~~~ 
    Namelist  namhsb :
       check the heat and salt budgets (T) or not (F)       ln_diahsb =  F

 trd_init : Momentum/Tracers trends
 ~~~~~~~~
    Namelist namtrd : set trends parameters
       global domain averaged dyn & tra trends   ln_glo_trd  =  F
       U & V trends: 3D output                   ln_dyn_trd  =  F
       U & V trends: Mixed Layer averaged        ln_dyn_mxl  =  F
       T & S trends: 3D output                   ln_tra_trd  =  F
       T & S trends: Mixed Layer averaged        ln_tra_mxl  =  F
       Kinetic   Energy trends                   ln_KE_trd   =  F
       Potential Energy trends                   ln_PE_trd   =  F
       Barotropic vorticity trends               ln_vor_trd  =  F
       frequency of trends diagnostics (glo)     nn_trd      =          365

 dia_obs_init : NO Observation diagnostic used
 ~~~~~~~~~~~~

 dia_25h_init : Output 25 hour mean diagnostics
 ~~~~~~~~~~~~
    Namelist nam_dia25h : set 25h outputs 
       Switch for 25h diagnostics (T) or not (F)  ln_dia25h  =  F

 dia_harm_init: Tidal harmonic analysis initialization
 ~~~~~~~~~~~~~ 
 Tidal diagnostics =  F
    First time step used for analysis:         nit000_han=            1
    Last  time step used for analysis:         nitend_han=           75
    Time step frequency for harmonic analysis: nstep_han =           15

AAAAAAAA


AAAAAAAA


 usrdef_sbc_oce : analytical surface fluxes for GYRE configuration
 ~~~~~~~~~~~ 
            nyear      =            1
            nmonth     =            1
            nday       =            1
            nday_year  =            1
            ztime      =   0.33333333333333331     
            ztimemax   =    4104.0000000000000     
            ztimemin   =    8424.0000000000000     
            ztimemax1  =    4104.0000000000000     
            ztimemin1  =    8424.0000000000000     
            ztimemax2  =    4824.0000000000000     
            ztimemin2  =    504.00000000000000     
            zyear0     =            1
            zmonth0    =            1
            zday0      =            1
            zday_year0 =            1
            zyydd      =    360.00000000000000     
            zemp_S     =   0.69999999999999996     
            zemp_N     =   0.80000000000000004     
            zemp_sais  =   0.10000000000000001     
            zTstar     =    28.300000000000001     
            zsumemp    =    8.4951510074999742E-006
            zsurf      =    13500000.000000000     
            ztrp       =   -40.000000000000000     
            zconv      =    3.1600000000000002E-005
            ndastp     =        10101
            adatrj     =    1.3888888888888888E-002
           nit000-1 surface forcing fields set to nit000

 zdf_evd : Enhanced Vertical Diffusion (evd)
 ~~~~~~~ 


 zdf_mxl : mixed layer depth
 ~~~~~~~ 

 ssh_nxt : after sea surface height
 ~~~~~~~ 

 div_hor : horizontal velocity divergence 
 ~~~~~~~   

 wzv : now vertical velocity 
 ~~~~~ 

 dyn_keg : kinetic energy gradient trend, scheme number=           0
 ~~~~~~~

 dyn_zad : 2nd order vertical advection scheme

 dyn:vor_ene : vorticity term: energy conserving scheme
 ~~~~~~~~~~~

 dyn_ldf : iso-level harmonic (laplacian) operator, pass=           1
 ~~~~~~~ 

 dyn:hpg_zco : hydrostatic pressure gradient trend
 ~~~~~~~~~~~   z-coordinate case 

 dyn_spg_ts : surface pressure gradient trend
 ~~~~~~~~~~   free surface with time splitting


 div_hor : horizontal velocity divergence 
 ~~~~~~~   

 dyn_zdf_imp : vertical momentum diffusion implicit operator
 ~~~~~~~~~~~ 

 wzv : now vertical velocity 
 ~~~~~ 

 tra_sbc : TRAcer Surface Boundary Condition
 ~~~~~~~ 

 tra_qsr : penetration of the surface solar radiation
 ~~~~~~~

 tra_adv_fct : FCT advection scheme on TRA
 ~~~~~~~~~~~

 tra_ldf_iso : rotated laplacian diffusion operator on TRA
 ~~~~~~~~~~~

 tra_zdf : implicit vertical mixing on T & S
 ~~~~~~~ 

 tra_nxt : achieve the time stepping by Asselin filter and array swap
 ~~~~~~~

 dyn_nxt : time stepping
 ~~~~~~~

 ssh_swp : Asselin time filter and swap of sea surface height
 ~~~~~~~ 

 stp_ctl : time-stepping control
 ~~~~~~~
      file   : time.step open ok
      unit   =           21
      status = REPLACE
      form   = FORMATTED
      access = SEQUENTIAL

======>> time-step =      73      New day, DATE Y/M/D = 0001/01/02      nday_year = 002
         nsec_year =    87000   nsec_month =   87000   nsec_day =   600
   nsec_week =   173400
======>> time-step =     145      New day, DATE Y/M/D = 0001/01/03      nday_year = 003
         nsec_year =   173400   nsec_month =  173400   nsec_day =   600
   nsec_week =   259800
======>> time-step =     217      New day, DATE Y/M/D = 0001/01/04      nday_year = 004
         nsec_year =   259800   nsec_month =  259800   nsec_day =   600
   nsec_week =   346200
======>> time-step =     289      New day, DATE Y/M/D = 0001/01/05      nday_year = 005
         nsec_year =   346200   nsec_month =  346200   nsec_day =   600
   nsec_week =   432600
======>> time-step =     361      New day, DATE Y/M/D = 0001/01/06      nday_year = 006
         nsec_year =   432600   nsec_month =  432600   nsec_day =   600
   nsec_week =   519000
======>> time-step =     433      New day, DATE Y/M/D = 0001/01/07      nday_year = 007
         nsec_year =   519000   nsec_month =  519000   nsec_day =   600
   nsec_week =   605400
======>> time-step =     505      New day, DATE Y/M/D = 0001/01/08      nday_year = 008
         nsec_year =   605400   nsec_month =  605400   nsec_day =   600
   nsec_week =    87000
======>> time-step =     577      New day, DATE Y/M/D = 0001/01/09      nday_year = 009
         nsec_year =   691800   nsec_month =  691800   nsec_day =   600
   nsec_week =   173400
======>> time-step =     649      New day, DATE Y/M/D = 0001/01/10      nday_year = 010
         nsec_year =   778200   nsec_month =  778200   nsec_day =   600
   nsec_week =   259800
======>> time-step =     721      New day, DATE Y/M/D = 0001/01/11      nday_year = 011
         nsec_year =   864600   nsec_month =  864600   nsec_day =   600
   nsec_week =   346200
======>> time-step =     793      New day, DATE Y/M/D = 0001/01/12      nday_year = 012
         nsec_year =   951000   nsec_month =  951000   nsec_day =   600
   nsec_week =   432600
======>> time-step =     865      New day, DATE Y/M/D = 0001/01/13      nday_year = 013
         nsec_year =  1037400   nsec_month = 1037400   nsec_day =   600
   nsec_week =   519000
======>> time-step =     937      New day, DATE Y/M/D = 0001/01/14      nday_year = 014
         nsec_year =  1123800   nsec_month = 1123800   nsec_day =   600
   nsec_week =   605400

AAAAAAAA

